
---------- Begin Simulation Statistics ----------
simSeconds                                   0.000736                       # Number of seconds simulated (Second)
simTicks                                    735906024                       # Number of ticks simulated (Tick)
finalTick                                  2252678400                       # Number of ticks from beginning of simulation (restored from checkpoints and never reset) (Tick)
simFreq                                  1000000000000                       # The number of ticks per simulated second ((Tick/Second))
hostSeconds                                      8.01                       # Real time elapsed on the host (Second)
hostTickRate                                 91851349                       # The number of ticks simulated per host second (ticks/s) ((Tick/Second))
hostMemory                                    4934828                       # Number of bytes of host memory used (Byte)
simInsts                                      1724608                       # Number of instructions simulated (Count)
simOps                                        1724661                       # Number of ops (including micro ops) simulated (Count)
hostInstRate                                   215250                       # Simulator instruction rate (inst/s) ((Count/Second))
hostOpRate                                     215256                       # Simulator op (including micro ops) rate (op/s) ((Count/Second))
board.cache_hierarchy.ruby_system.delayHistogram::bucket_size           32                       # delay histogram for all message (Unspecified)
board.cache_hierarchy.ruby_system.delayHistogram::max_bucket          319                       # delay histogram for all message (Unspecified)
board.cache_hierarchy.ruby_system.delayHistogram::samples       466388                       # delay histogram for all message (Unspecified)
board.cache_hierarchy.ruby_system.delayHistogram::mean     0.895010                       # delay histogram for all message (Unspecified)
board.cache_hierarchy.ruby_system.delayHistogram::stdev     3.503960                       # delay histogram for all message (Unspecified)
board.cache_hierarchy.ruby_system.delayHistogram |      466384    100.00%    100.00% |           2      0.00%    100.00% |           0      0.00%    100.00% |           0      0.00%    100.00% |           1      0.00%    100.00% |           0      0.00%    100.00% |           0      0.00%    100.00% |           0      0.00%    100.00% |           0      0.00%    100.00% |           1      0.00%    100.00% # delay histogram for all message (Unspecified)
board.cache_hierarchy.ruby_system.delayHistogram::total       466388                       # delay histogram for all message (Unspecified)
board.cache_hierarchy.ruby_system.m_outstandReqHistSeqr::bucket_size            1                       (Unspecified)
board.cache_hierarchy.ruby_system.m_outstandReqHistSeqr::max_bucket            9                       (Unspecified)
board.cache_hierarchy.ruby_system.m_outstandReqHistSeqr::samples      3098935                       (Unspecified)
board.cache_hierarchy.ruby_system.m_outstandReqHistSeqr::mean            1                       (Unspecified)
board.cache_hierarchy.ruby_system.m_outstandReqHistSeqr::gmean            1                       (Unspecified)
board.cache_hierarchy.ruby_system.m_outstandReqHistSeqr |           0      0.00%      0.00% |     3098935    100.00%    100.00% |           0      0.00%    100.00% |           0      0.00%    100.00% |           0      0.00%    100.00% |           0      0.00%    100.00% |           0      0.00%    100.00% |           0      0.00%    100.00% |           0      0.00%    100.00% |           0      0.00%    100.00% (Unspecified)
board.cache_hierarchy.ruby_system.m_outstandReqHistSeqr::total      3098935                       (Unspecified)
board.cache_hierarchy.ruby_system.m_latencyHistSeqr::bucket_size          256                       (Unspecified)
board.cache_hierarchy.ruby_system.m_latencyHistSeqr::max_bucket         2559                       (Unspecified)
board.cache_hierarchy.ruby_system.m_latencyHistSeqr::samples      3098935                       (Unspecified)
board.cache_hierarchy.ruby_system.m_latencyHistSeqr::mean     1.782173                       (Unspecified)
board.cache_hierarchy.ruby_system.m_latencyHistSeqr::gmean     1.104517                       (Unspecified)
board.cache_hierarchy.ruby_system.m_latencyHistSeqr::stdev     6.889549                       (Unspecified)
board.cache_hierarchy.ruby_system.m_latencyHistSeqr |     3098770     99.99%     99.99% |         102      0.00%    100.00% |          35      0.00%    100.00% |          25      0.00%    100.00% |           2      0.00%    100.00% |           1      0.00%    100.00% |           0      0.00%    100.00% |           0      0.00%    100.00% |           0      0.00%    100.00% |           0      0.00%    100.00% (Unspecified)
board.cache_hierarchy.ruby_system.m_latencyHistSeqr::total      3098935                       (Unspecified)
board.cache_hierarchy.ruby_system.m_hitLatencyHistSeqr::bucket_size            1                       (Unspecified)
board.cache_hierarchy.ruby_system.m_hitLatencyHistSeqr::max_bucket            9                       (Unspecified)
board.cache_hierarchy.ruby_system.m_hitLatencyHistSeqr::samples      2999274                       (Unspecified)
board.cache_hierarchy.ruby_system.m_hitLatencyHistSeqr::mean            1                       (Unspecified)
board.cache_hierarchy.ruby_system.m_hitLatencyHistSeqr::gmean            1                       (Unspecified)
board.cache_hierarchy.ruby_system.m_hitLatencyHistSeqr |           0      0.00%      0.00% |     2999274    100.00%    100.00% |           0      0.00%    100.00% |           0      0.00%    100.00% |           0      0.00%    100.00% |           0      0.00%    100.00% |           0      0.00%    100.00% |           0      0.00%    100.00% |           0      0.00%    100.00% |           0      0.00%    100.00% (Unspecified)
board.cache_hierarchy.ruby_system.m_hitLatencyHistSeqr::total      2999274                       (Unspecified)
board.cache_hierarchy.ruby_system.m_missLatencyHistSeqr::bucket_size          256                       (Unspecified)
board.cache_hierarchy.ruby_system.m_missLatencyHistSeqr::max_bucket         2559                       (Unspecified)
board.cache_hierarchy.ruby_system.m_missLatencyHistSeqr::samples        99661                       (Unspecified)
board.cache_hierarchy.ruby_system.m_missLatencyHistSeqr::mean    25.321470                       (Unspecified)
board.cache_hierarchy.ruby_system.m_missLatencyHistSeqr::gmean    22.000350                       (Unspecified)
board.cache_hierarchy.ruby_system.m_missLatencyHistSeqr::stdev    30.057259                       (Unspecified)
board.cache_hierarchy.ruby_system.m_missLatencyHistSeqr |       99496     99.83%     99.83% |         102      0.10%     99.94% |          35      0.04%     99.97% |          25      0.03%    100.00% |           2      0.00%    100.00% |           1      0.00%    100.00% |           0      0.00%    100.00% |           0      0.00%    100.00% |           0      0.00%    100.00% |           0      0.00%    100.00% (Unspecified)
board.cache_hierarchy.ruby_system.m_missLatencyHistSeqr::total        99661                       (Unspecified)
board.cache_hierarchy.ruby_system.delayVCHist.vnet_0::bucket_size           32                       # delay histogram for vnet_0 (Unspecified)
board.cache_hierarchy.ruby_system.delayVCHist.vnet_0::max_bucket          319                       # delay histogram for vnet_0 (Unspecified)
board.cache_hierarchy.ruby_system.delayVCHist.vnet_0::samples       201425                       # delay histogram for vnet_0 (Unspecified)
board.cache_hierarchy.ruby_system.delayVCHist.vnet_0::mean     2.049924                       # delay histogram for vnet_0 (Unspecified)
board.cache_hierarchy.ruby_system.delayVCHist.vnet_0::stdev     5.094786                       # delay histogram for vnet_0 (Unspecified)
board.cache_hierarchy.ruby_system.delayVCHist.vnet_0 |      201421    100.00%    100.00% |           2      0.00%    100.00% |           0      0.00%    100.00% |           0      0.00%    100.00% |           1      0.00%    100.00% |           0      0.00%    100.00% |           0      0.00%    100.00% |           0      0.00%    100.00% |           0      0.00%    100.00% |           1      0.00%    100.00% # delay histogram for vnet_0 (Unspecified)
board.cache_hierarchy.ruby_system.delayVCHist.vnet_0::total       201425                       # delay histogram for vnet_0 (Unspecified)
board.cache_hierarchy.ruby_system.delayVCHist.vnet_1::bucket_size            2                       # delay histogram for vnet_1 (Unspecified)
board.cache_hierarchy.ruby_system.delayVCHist.vnet_1::max_bucket           19                       # delay histogram for vnet_1 (Unspecified)
board.cache_hierarchy.ruby_system.delayVCHist.vnet_1::samples       169669                       # delay histogram for vnet_1 (Unspecified)
board.cache_hierarchy.ruby_system.delayVCHist.vnet_1::mean     0.026617                       # delay histogram for vnet_1 (Unspecified)
board.cache_hierarchy.ruby_system.delayVCHist.vnet_1::stdev     0.383057                       # delay histogram for vnet_1 (Unspecified)
board.cache_hierarchy.ruby_system.delayVCHist.vnet_1 |      168647     99.40%     99.40% |         381      0.22%     99.62% |         212      0.12%     99.75% |         264      0.16%     99.90% |         164      0.10%    100.00% |           1      0.00%    100.00% |           0      0.00%    100.00% |           0      0.00%    100.00% |           0      0.00%    100.00% |           0      0.00%    100.00% # delay histogram for vnet_1 (Unspecified)
board.cache_hierarchy.ruby_system.delayVCHist.vnet_1::total       169669                       # delay histogram for vnet_1 (Unspecified)
board.cache_hierarchy.ruby_system.delayVCHist.vnet_2::bucket_size            1                       # delay histogram for vnet_2 (Unspecified)
board.cache_hierarchy.ruby_system.delayVCHist.vnet_2::max_bucket            9                       # delay histogram for vnet_2 (Unspecified)
board.cache_hierarchy.ruby_system.delayVCHist.vnet_2::samples        95294                       # delay histogram for vnet_2 (Unspecified)
board.cache_hierarchy.ruby_system.delayVCHist.vnet_2 |       95294    100.00%    100.00% |           0      0.00%    100.00% |           0      0.00%    100.00% |           0      0.00%    100.00% |           0      0.00%    100.00% |           0      0.00%    100.00% |           0      0.00%    100.00% |           0      0.00%    100.00% |           0      0.00%    100.00% |           0      0.00%    100.00% # delay histogram for vnet_2 (Unspecified)
board.cache_hierarchy.ruby_system.delayVCHist.vnet_2::total        95294                       # delay histogram for vnet_2 (Unspecified)
board.cache_hierarchy.ruby_system.Directory_Controller.Fetch         1948      0.00%      0.00% (Unspecified)
board.cache_hierarchy.ruby_system.Directory_Controller.Data         1104      0.00%      0.00% (Unspecified)
board.cache_hierarchy.ruby_system.Directory_Controller.Memory_Data         1948      0.00%      0.00% (Unspecified)
board.cache_hierarchy.ruby_system.Directory_Controller.Memory_Ack         1104      0.00%      0.00% (Unspecified)
board.cache_hierarchy.ruby_system.Directory_Controller.CleanReplacement          844      0.00%      0.00% (Unspecified)
board.cache_hierarchy.ruby_system.Directory_Controller.I.Fetch         1948      0.00%      0.00% (Unspecified)
board.cache_hierarchy.ruby_system.Directory_Controller.M.Data         1104      0.00%      0.00% (Unspecified)
board.cache_hierarchy.ruby_system.Directory_Controller.M.CleanReplacement          844      0.00%      0.00% (Unspecified)
board.cache_hierarchy.ruby_system.Directory_Controller.IM.Memory_Data         1948      0.00%      0.00% (Unspecified)
board.cache_hierarchy.ruby_system.Directory_Controller.MI.Memory_Ack         1104      0.00%      0.00% (Unspecified)
board.cache_hierarchy.ruby_system.L1Cache_Controller.Load |      182418     24.47%     24.47% |      185853     24.93%     49.40% |      188359     25.27%     74.67% |      188794     25.33%    100.00% (Unspecified)
board.cache_hierarchy.ruby_system.L1Cache_Controller.Load::total       745424                       (Unspecified)
board.cache_hierarchy.ruby_system.L1Cache_Controller.Ifetch |      535188     24.17%     24.17% |      551014     24.89%     49.06% |      562828     25.42%     74.48% |      564896     25.52%    100.00% (Unspecified)
board.cache_hierarchy.ruby_system.L1Cache_Controller.Ifetch::total      2213926                       (Unspecified)
board.cache_hierarchy.ruby_system.L1Cache_Controller.Store |       34326     24.59%     24.59% |       34563     24.76%     49.36% |       35279     25.28%     74.63% |       35404     25.37%    100.00% (Unspecified)
board.cache_hierarchy.ruby_system.L1Cache_Controller.Store::total       139572                       (Unspecified)
board.cache_hierarchy.ruby_system.L1Cache_Controller.Inv |        8034     25.13%     25.13% |        7518     23.51%     48.64% |        8237     25.76%     74.40% |        8187     25.60%    100.00% (Unspecified)
board.cache_hierarchy.ruby_system.L1Cache_Controller.Inv::total        31976                       (Unspecified)
board.cache_hierarchy.ruby_system.L1Cache_Controller.L1_Replacement |        1312     42.83%     42.83% |         585     19.10%     61.93% |         584     19.07%     81.00% |         582     19.00%    100.00% (Unspecified)
board.cache_hierarchy.ruby_system.L1Cache_Controller.L1_Replacement::total         3063                       (Unspecified)
board.cache_hierarchy.ruby_system.L1Cache_Controller.Fwd_GETX |        7753     24.30%     24.30% |        7896     24.74%     49.04% |        8108     25.41%     74.45% |        8154     25.55%    100.00% (Unspecified)
board.cache_hierarchy.ruby_system.L1Cache_Controller.Fwd_GETX::total        31911                       (Unspecified)
board.cache_hierarchy.ruby_system.L1Cache_Controller.Fwd_GETS |        7623     24.27%     24.27% |        7532     23.98%     48.25% |        8144     25.93%     74.18% |        8108     25.82%    100.00% (Unspecified)
board.cache_hierarchy.ruby_system.L1Cache_Controller.Fwd_GETS::total        31407                       (Unspecified)
board.cache_hierarchy.ruby_system.L1Cache_Controller.Data_Exclusive |        1073     25.71%     25.71% |        1040     24.92%     50.64% |        1030     24.68%     75.32% |        1030     24.68%    100.00% (Unspecified)
board.cache_hierarchy.ruby_system.L1Cache_Controller.Data_Exclusive::total         4173                       (Unspecified)
board.cache_hierarchy.ruby_system.L1Cache_Controller.DataS_fromL1 |        7525     23.96%     23.96% |        7603     24.21%     48.17% |        8122     25.86%     74.03% |        8157     25.97%    100.00% (Unspecified)
board.cache_hierarchy.ruby_system.L1Cache_Controller.DataS_fromL1::total        31407                       (Unspecified)
board.cache_hierarchy.ruby_system.L1Cache_Controller.Data_all_Acks |        8263     25.26%     25.26% |        7879     24.08%     49.34% |        8309     25.40%     74.74% |        8265     25.26%    100.00% (Unspecified)
board.cache_hierarchy.ruby_system.L1Cache_Controller.Data_all_Acks::total        32716                       (Unspecified)
board.cache_hierarchy.ruby_system.L1Cache_Controller.Ack |        7431     23.69%     23.69% |        7682     24.49%     48.18% |        8096     25.81%     73.99% |        8160     26.01%    100.00% (Unspecified)
board.cache_hierarchy.ruby_system.L1Cache_Controller.Ack::total        31369                       (Unspecified)
board.cache_hierarchy.ruby_system.L1Cache_Controller.Ack_all |        7429     23.69%     23.69% |        7682     24.49%     48.18% |        8096     25.81%     73.99% |        8156     26.01%    100.00% (Unspecified)
board.cache_hierarchy.ruby_system.L1Cache_Controller.Ack_all::total        31363                       (Unspecified)
board.cache_hierarchy.ruby_system.L1Cache_Controller.WB_Ack |        1096     40.16%     40.16% |         539     19.75%     59.91% |         550     20.15%     80.07% |         544     19.93%    100.00% (Unspecified)
board.cache_hierarchy.ruby_system.L1Cache_Controller.WB_Ack::total         2729                       (Unspecified)
board.cache_hierarchy.ruby_system.L1Cache_Controller.Load_Linked |          13    100.00%    100.00% |           0      0.00%    100.00% |           0      0.00%    100.00% |           0      0.00%    100.00% (Unspecified)
board.cache_hierarchy.ruby_system.L1Cache_Controller.Load_Linked::total           13                       (Unspecified)
board.cache_hierarchy.ruby_system.L1Cache_Controller.LLSC_Data_all_Acks |           2    100.00%    100.00% |           0      0.00%    100.00% |           0      0.00%    100.00% |           0      0.00%    100.00% (Unspecified)
board.cache_hierarchy.ruby_system.L1Cache_Controller.LLSC_Data_all_Acks::total            2                       (Unspecified)
board.cache_hierarchy.ruby_system.L1Cache_Controller.LLSC_Timeout |          13    100.00%    100.00% |           0      0.00%    100.00% |           0      0.00%    100.00% |           0      0.00%    100.00% (Unspecified)
board.cache_hierarchy.ruby_system.L1Cache_Controller.LLSC_Timeout::total           13                       (Unspecified)
board.cache_hierarchy.ruby_system.L1Cache_Controller.NP.Load |        1073     25.15%     25.15% |        1066     24.98%     50.13% |        1065     24.96%     75.09% |        1063     24.91%    100.00% (Unspecified)
board.cache_hierarchy.ruby_system.L1Cache_Controller.NP.Load::total         4267                       (Unspecified)
board.cache_hierarchy.ruby_system.L1Cache_Controller.NP.Ifetch |         215     41.67%     41.67% |          99     19.19%     60.85% |          99     19.19%     80.04% |         103     19.96%    100.00% (Unspecified)
board.cache_hierarchy.ruby_system.L1Cache_Controller.NP.Ifetch::total          516                       (Unspecified)
board.cache_hierarchy.ruby_system.L1Cache_Controller.NP.Store |         114     55.07%     55.07% |          31     14.98%     70.05% |          31     14.98%     85.02% |          31     14.98%    100.00% (Unspecified)
board.cache_hierarchy.ruby_system.L1Cache_Controller.NP.Store::total          207                       (Unspecified)
board.cache_hierarchy.ruby_system.L1Cache_Controller.NP.Inv |          41     46.59%     46.59% |          16     18.18%     64.77% |          16     18.18%     82.95% |          15     17.05%    100.00% (Unspecified)
board.cache_hierarchy.ruby_system.L1Cache_Controller.NP.Inv::total           88                       (Unspecified)
board.cache_hierarchy.ruby_system.L1Cache_Controller.NP.Load_Linked |           2    100.00%    100.00% |           0      0.00%    100.00% |           0      0.00%    100.00% |           0      0.00%    100.00% (Unspecified)
board.cache_hierarchy.ruby_system.L1Cache_Controller.NP.Load_Linked::total            2                       (Unspecified)
board.cache_hierarchy.ruby_system.L1Cache_Controller.I.Load |        7527     24.00%     24.00% |        7586     24.18%     48.18% |        8108     25.85%     74.03% |        8147     25.97%    100.00% (Unspecified)
board.cache_hierarchy.ruby_system.L1Cache_Controller.I.Load::total        31368                       (Unspecified)
board.cache_hierarchy.ruby_system.L1Cache_Controller.I.Ifetch |          40     72.73%     72.73% |           5      9.09%     81.82% |           5      9.09%     90.91% |           5      9.09%    100.00% (Unspecified)
board.cache_hierarchy.ruby_system.L1Cache_Controller.I.Ifetch::total           55                       (Unspecified)
board.cache_hierarchy.ruby_system.L1Cache_Controller.I.Store |        1975     34.09%     34.09% |        1877     32.40%     66.48% |         993     17.14%     83.62% |         949     16.38%    100.00% (Unspecified)
board.cache_hierarchy.ruby_system.L1Cache_Controller.I.Store::total         5794                       (Unspecified)
board.cache_hierarchy.ruby_system.L1Cache_Controller.I.L1_Replacement |         165     76.04%     76.04% |          23     10.60%     86.64% |          12      5.53%     92.17% |          17      7.83%    100.00% (Unspecified)
board.cache_hierarchy.ruby_system.L1Cache_Controller.I.L1_Replacement::total          217                       (Unspecified)
board.cache_hierarchy.ruby_system.L1Cache_Controller.S.Load |       24044     24.02%     24.02% |       24687     24.66%     48.68% |       25696     25.67%     74.35% |       25681     25.65%    100.00% (Unspecified)
board.cache_hierarchy.ruby_system.L1Cache_Controller.S.Load::total       100108                       (Unspecified)
board.cache_hierarchy.ruby_system.L1Cache_Controller.S.Ifetch |      534933     24.17%     24.17% |      550910     24.89%     49.06% |      562724     25.42%     74.48% |      564788     25.52%    100.00% (Unspecified)
board.cache_hierarchy.ruby_system.L1Cache_Controller.S.Ifetch::total      2213355                       (Unspecified)
board.cache_hierarchy.ruby_system.L1Cache_Controller.S.Store |       13346     23.23%     23.23% |       13540     23.57%     46.80% |       15256     26.55%     73.35% |       15310     26.65%    100.00% (Unspecified)
board.cache_hierarchy.ruby_system.L1Cache_Controller.S.Store::total        57452                       (Unspecified)
board.cache_hierarchy.ruby_system.L1Cache_Controller.S.Inv |        2028     35.53%     35.53% |        1626     28.49%     64.02% |        1054     18.47%     82.48% |        1000     17.52%    100.00% (Unspecified)
board.cache_hierarchy.ruby_system.L1Cache_Controller.S.Inv::total         5708                       (Unspecified)
board.cache_hierarchy.ruby_system.L1Cache_Controller.S.L1_Replacement |          51     43.59%     43.59% |          23     19.66%     63.25% |          22     18.80%     82.05% |          21     17.95%    100.00% (Unspecified)
board.cache_hierarchy.ruby_system.L1Cache_Controller.S.L1_Replacement::total          117                       (Unspecified)
board.cache_hierarchy.ruby_system.L1Cache_Controller.E.Load |       20340     24.85%     24.85% |       26298     32.12%     56.97% |       19820     24.21%     81.18% |       15406     18.82%    100.00% (Unspecified)
board.cache_hierarchy.ruby_system.L1Cache_Controller.E.Load::total        81864                       (Unspecified)
board.cache_hierarchy.ruby_system.L1Cache_Controller.E.Store |          17     73.91%     73.91% |           2      8.70%     82.61% |           2      8.70%     91.30% |           2      8.70%    100.00% (Unspecified)
board.cache_hierarchy.ruby_system.L1Cache_Controller.E.Store::total           23                       (Unspecified)
board.cache_hierarchy.ruby_system.L1Cache_Controller.E.Inv |          41     61.19%     61.19% |          12     17.91%     79.10% |           0      0.00%     79.10% |          14     20.90%    100.00% (Unspecified)
board.cache_hierarchy.ruby_system.L1Cache_Controller.E.Inv::total           67                       (Unspecified)
board.cache_hierarchy.ruby_system.L1Cache_Controller.E.L1_Replacement |         540     25.60%     25.60% |         519     24.61%     50.21% |         531     25.18%     75.39% |         519     24.61%    100.00% (Unspecified)
board.cache_hierarchy.ruby_system.L1Cache_Controller.E.L1_Replacement::total         2109                       (Unspecified)
board.cache_hierarchy.ruby_system.L1Cache_Controller.E.Fwd_GETS |           8     38.10%     38.10% |           9     42.86%     80.95% |           0      0.00%     80.95% |           4     19.05%    100.00% (Unspecified)
board.cache_hierarchy.ruby_system.L1Cache_Controller.E.Fwd_GETS::total           21                       (Unspecified)
board.cache_hierarchy.ruby_system.L1Cache_Controller.E.Load_Linked |           1    100.00%    100.00% |           0      0.00%    100.00% |           0      0.00%    100.00% |           0      0.00%    100.00% (Unspecified)
board.cache_hierarchy.ruby_system.L1Cache_Controller.E.Load_Linked::total            1                       (Unspecified)
board.cache_hierarchy.ruby_system.L1Cache_Controller.M.Load |      129434     24.52%     24.52% |      126216     23.91%     48.44% |      133670     25.33%     73.76% |      138497     26.24%    100.00% (Unspecified)
board.cache_hierarchy.ruby_system.L1Cache_Controller.M.Load::total       527817                       (Unspecified)
board.cache_hierarchy.ruby_system.L1Cache_Controller.M.Store |       18862     24.79%     24.79% |       19113     25.12%     49.91% |       18997     24.97%     74.88% |       19112     25.12%    100.00% (Unspecified)
board.cache_hierarchy.ruby_system.L1Cache_Controller.M.Store::total        76084                       (Unspecified)
board.cache_hierarchy.ruby_system.L1Cache_Controller.M.Inv |           7     29.17%     29.17% |           6     25.00%     54.17% |           7     29.17%     83.33% |           4     16.67%    100.00% (Unspecified)
board.cache_hierarchy.ruby_system.L1Cache_Controller.M.Inv::total           24                       (Unspecified)
board.cache_hierarchy.ruby_system.L1Cache_Controller.M.L1_Replacement |         556     89.68%     89.68% |          20      3.23%     92.90% |          19      3.06%     95.97% |          25      4.03%    100.00% (Unspecified)
board.cache_hierarchy.ruby_system.L1Cache_Controller.M.L1_Replacement::total          620                       (Unspecified)
board.cache_hierarchy.ruby_system.L1Cache_Controller.M.Fwd_GETX |        7753     24.30%     24.30% |        7896     24.74%     49.04% |        8108     25.41%     74.45% |        8154     25.55%    100.00% (Unspecified)
board.cache_hierarchy.ruby_system.L1Cache_Controller.M.Fwd_GETX::total        31911                       (Unspecified)
board.cache_hierarchy.ruby_system.L1Cache_Controller.M.Fwd_GETS |        7615     24.26%     24.26% |        7523     23.97%     48.23% |        8144     25.95%     74.18% |        8104     25.82%    100.00% (Unspecified)
board.cache_hierarchy.ruby_system.L1Cache_Controller.M.Fwd_GETS::total        31386                       (Unspecified)
board.cache_hierarchy.ruby_system.L1Cache_Controller.M.Load_Linked |          10    100.00%    100.00% |           0      0.00%    100.00% |           0      0.00%    100.00% |           0      0.00%    100.00% (Unspecified)
board.cache_hierarchy.ruby_system.L1Cache_Controller.M.Load_Linked::total           10                       (Unspecified)
board.cache_hierarchy.ruby_system.L1Cache_Controller.IS.Data_Exclusive |        1073     25.71%     25.71% |        1040     24.92%     50.64% |        1030     24.68%     75.32% |        1030     24.68%    100.00% (Unspecified)
board.cache_hierarchy.ruby_system.L1Cache_Controller.IS.Data_Exclusive::total         4173                       (Unspecified)
board.cache_hierarchy.ruby_system.L1Cache_Controller.IS.DataS_fromL1 |        7525     23.96%     23.96% |        7603     24.21%     48.17% |        8122     25.86%     74.03% |        8157     25.97%    100.00% (Unspecified)
board.cache_hierarchy.ruby_system.L1Cache_Controller.IS.DataS_fromL1::total        31407                       (Unspecified)
board.cache_hierarchy.ruby_system.L1Cache_Controller.IS.Data_all_Acks |         257     41.05%     41.05% |         113     18.05%     59.11% |         125     19.97%     79.07% |         131     20.93%    100.00% (Unspecified)
board.cache_hierarchy.ruby_system.L1Cache_Controller.IS.Data_all_Acks::total          626                       (Unspecified)
board.cache_hierarchy.ruby_system.L1Cache_Controller.IM.Data_all_Acks |        8006     24.95%     24.95% |        7766     24.20%     49.15% |        8184     25.50%     74.65% |        8134     25.35%    100.00% (Unspecified)
board.cache_hierarchy.ruby_system.L1Cache_Controller.IM.Data_all_Acks::total        32090                       (Unspecified)
board.cache_hierarchy.ruby_system.L1Cache_Controller.IM.LLSC_Data_all_Acks |           2    100.00%    100.00% |           0      0.00%    100.00% |           0      0.00%    100.00% |           0      0.00%    100.00% (Unspecified)
board.cache_hierarchy.ruby_system.L1Cache_Controller.IM.LLSC_Data_all_Acks::total            2                       (Unspecified)
board.cache_hierarchy.ruby_system.L1Cache_Controller.SM.Inv |        5917     22.68%     22.68% |        5858     22.45%     45.13% |        7160     27.44%     72.58% |        7154     27.42%    100.00% (Unspecified)
board.cache_hierarchy.ruby_system.L1Cache_Controller.SM.Inv::total        26089                       (Unspecified)
board.cache_hierarchy.ruby_system.L1Cache_Controller.SM.Ack |        7431     23.69%     23.69% |        7682     24.49%     48.18% |        8096     25.81%     73.99% |        8160     26.01%    100.00% (Unspecified)
board.cache_hierarchy.ruby_system.L1Cache_Controller.SM.Ack::total        31369                       (Unspecified)
board.cache_hierarchy.ruby_system.L1Cache_Controller.SM.Ack_all |        7429     23.69%     23.69% |        7682     24.49%     48.18% |        8096     25.81%     73.99% |        8156     26.01%    100.00% (Unspecified)
board.cache_hierarchy.ruby_system.L1Cache_Controller.SM.Ack_all::total        31363                       (Unspecified)
board.cache_hierarchy.ruby_system.L1Cache_Controller.M_I.WB_Ack |        1096     40.16%     40.16% |         539     19.75%     59.91% |         550     20.15%     80.07% |         544     19.93%    100.00% (Unspecified)
board.cache_hierarchy.ruby_system.L1Cache_Controller.M_I.WB_Ack::total         2729                       (Unspecified)
board.cache_hierarchy.ruby_system.L1Cache_Controller.LLSC_E.Store |           2    100.00%    100.00% |           0      0.00%    100.00% |           0      0.00%    100.00% |           0      0.00%    100.00% (Unspecified)
board.cache_hierarchy.ruby_system.L1Cache_Controller.LLSC_E.Store::total            2                       (Unspecified)
board.cache_hierarchy.ruby_system.L1Cache_Controller.LLSC_E.LLSC_Timeout |           1    100.00%    100.00% |           0      0.00%    100.00% |           0      0.00%    100.00% |           0      0.00%    100.00% (Unspecified)
board.cache_hierarchy.ruby_system.L1Cache_Controller.LLSC_E.LLSC_Timeout::total            1                       (Unspecified)
board.cache_hierarchy.ruby_system.L1Cache_Controller.LLSC_M.Store |          10    100.00%    100.00% |           0      0.00%    100.00% |           0      0.00%    100.00% |           0      0.00%    100.00% (Unspecified)
board.cache_hierarchy.ruby_system.L1Cache_Controller.LLSC_M.Store::total           10                       (Unspecified)
board.cache_hierarchy.ruby_system.L1Cache_Controller.LLSC_M.LLSC_Timeout |          12    100.00%    100.00% |           0      0.00%    100.00% |           0      0.00%    100.00% |           0      0.00%    100.00% (Unspecified)
board.cache_hierarchy.ruby_system.L1Cache_Controller.LLSC_M.LLSC_Timeout::total           12                       (Unspecified)
board.cache_hierarchy.ruby_system.L2Cache_Controller.L1_GET_INSTR          573      0.00%      0.00% (Unspecified)
board.cache_hierarchy.ruby_system.L2Cache_Controller.L1_GETS        36304      0.00%      0.00% (Unspecified)
board.cache_hierarchy.ruby_system.L2Cache_Controller.L1_GETX        35001      0.00%      0.00% (Unspecified)
board.cache_hierarchy.ruby_system.L2Cache_Controller.L1_UPGRADE        57452      0.00%      0.00% (Unspecified)
board.cache_hierarchy.ruby_system.L2Cache_Controller.L1_PUTX         2729      0.00%      0.00% (Unspecified)
board.cache_hierarchy.ruby_system.L2Cache_Controller.L2_Replacement         1080      0.00%      0.00% (Unspecified)
board.cache_hierarchy.ruby_system.L2Cache_Controller.L2_Replacement_clean          868      0.00%      0.00% (Unspecified)
board.cache_hierarchy.ruby_system.L2Cache_Controller.Mem_Data         1948      0.00%      0.00% (Unspecified)
board.cache_hierarchy.ruby_system.L2Cache_Controller.Mem_Ack         1948      0.00%      0.00% (Unspecified)
board.cache_hierarchy.ruby_system.L2Cache_Controller.WB_Data        31410      0.00%      0.00% (Unspecified)
board.cache_hierarchy.ruby_system.L2Cache_Controller.WB_Data_clean           21      0.00%      0.00% (Unspecified)
board.cache_hierarchy.ruby_system.L2Cache_Controller.Ack          173      0.00%      0.00% (Unspecified)
board.cache_hierarchy.ruby_system.L2Cache_Controller.Ack_all          410      0.00%      0.00% (Unspecified)
board.cache_hierarchy.ruby_system.L2Cache_Controller.Unblock        31407      0.00%      0.00% (Unspecified)
board.cache_hierarchy.ruby_system.L2Cache_Controller.Exclusive_Unblock        67628      0.00%      0.00% (Unspecified)
board.cache_hierarchy.ruby_system.L2Cache_Controller.NP.L1_GET_INSTR          324      0.00%      0.00% (Unspecified)
board.cache_hierarchy.ruby_system.L2Cache_Controller.NP.L1_GETS         1450      0.00%      0.00% (Unspecified)
board.cache_hierarchy.ruby_system.L2Cache_Controller.NP.L1_GETX          174      0.00%      0.00% (Unspecified)
board.cache_hierarchy.ruby_system.L2Cache_Controller.SS.L1_GET_INSTR          203      0.00%      0.00% (Unspecified)
board.cache_hierarchy.ruby_system.L2Cache_Controller.SS.L1_GETS           48      0.00%      0.00% (Unspecified)
board.cache_hierarchy.ruby_system.L2Cache_Controller.SS.L1_UPGRADE        31363      0.00%      0.00% (Unspecified)
board.cache_hierarchy.ruby_system.L2Cache_Controller.SS.L2_Replacement           15      0.00%      0.00% (Unspecified)
board.cache_hierarchy.ruby_system.L2Cache_Controller.SS.L2_Replacement_clean          328      0.00%      0.00% (Unspecified)
board.cache_hierarchy.ruby_system.L2Cache_Controller.M.L1_GETS         2726      0.00%      0.00% (Unspecified)
board.cache_hierarchy.ruby_system.L2Cache_Controller.M.L1_GETX            7      0.00%      0.00% (Unspecified)
board.cache_hierarchy.ruby_system.L2Cache_Controller.M.L2_Replacement         1019      0.00%      0.00% (Unspecified)
board.cache_hierarchy.ruby_system.L2Cache_Controller.M.L2_Replacement_clean          495      0.00%      0.00% (Unspecified)
board.cache_hierarchy.ruby_system.L2Cache_Controller.MT.L1_GETS        31407      0.00%      0.00% (Unspecified)
board.cache_hierarchy.ruby_system.L2Cache_Controller.MT.L1_GETX        31911      0.00%      0.00% (Unspecified)
board.cache_hierarchy.ruby_system.L2Cache_Controller.MT.L1_PUTX         2729      0.00%      0.00% (Unspecified)
board.cache_hierarchy.ruby_system.L2Cache_Controller.MT.L2_Replacement           46      0.00%      0.00% (Unspecified)
board.cache_hierarchy.ruby_system.L2Cache_Controller.MT.L2_Replacement_clean           45      0.00%      0.00% (Unspecified)
board.cache_hierarchy.ruby_system.L2Cache_Controller.M_I.L1_GET_INSTR            2      0.00%      0.00% (Unspecified)
board.cache_hierarchy.ruby_system.L2Cache_Controller.M_I.L1_GETS            3      0.00%      0.00% (Unspecified)
board.cache_hierarchy.ruby_system.L2Cache_Controller.M_I.Mem_Ack         1948      0.00%      0.00% (Unspecified)
board.cache_hierarchy.ruby_system.L2Cache_Controller.MT_I.Ack_all           46      0.00%      0.00% (Unspecified)
board.cache_hierarchy.ruby_system.L2Cache_Controller.MCT_I.WB_Data           24      0.00%      0.00% (Unspecified)
board.cache_hierarchy.ruby_system.L2Cache_Controller.MCT_I.Ack_all           21      0.00%      0.00% (Unspecified)
board.cache_hierarchy.ruby_system.L2Cache_Controller.I_I.Ack          145      0.00%      0.00% (Unspecified)
board.cache_hierarchy.ruby_system.L2Cache_Controller.I_I.Ack_all          328      0.00%      0.00% (Unspecified)
board.cache_hierarchy.ruby_system.L2Cache_Controller.S_I.Ack           28      0.00%      0.00% (Unspecified)
board.cache_hierarchy.ruby_system.L2Cache_Controller.S_I.Ack_all           15      0.00%      0.00% (Unspecified)
board.cache_hierarchy.ruby_system.L2Cache_Controller.ISS.L1_GETS            3      0.00%      0.00% (Unspecified)
board.cache_hierarchy.ruby_system.L2Cache_Controller.ISS.Mem_Data         1447      0.00%      0.00% (Unspecified)
board.cache_hierarchy.ruby_system.L2Cache_Controller.IS.L1_GET_INSTR           44      0.00%      0.00% (Unspecified)
board.cache_hierarchy.ruby_system.L2Cache_Controller.IS.L1_GETS            1      0.00%      0.00% (Unspecified)
board.cache_hierarchy.ruby_system.L2Cache_Controller.IS.Mem_Data          327      0.00%      0.00% (Unspecified)
board.cache_hierarchy.ruby_system.L2Cache_Controller.IM.L1_GETX            2      0.00%      0.00% (Unspecified)
board.cache_hierarchy.ruby_system.L2Cache_Controller.IM.Mem_Data          174      0.00%      0.00% (Unspecified)
board.cache_hierarchy.ruby_system.L2Cache_Controller.SS_MB.L1_GETX         2861      0.00%      0.00% (Unspecified)
board.cache_hierarchy.ruby_system.L2Cache_Controller.SS_MB.L1_UPGRADE        26089      0.00%      0.00% (Unspecified)
board.cache_hierarchy.ruby_system.L2Cache_Controller.SS_MB.Exclusive_Unblock        31363      0.00%      0.00% (Unspecified)
board.cache_hierarchy.ruby_system.L2Cache_Controller.MT_MB.L1_GETS          656      0.00%      0.00% (Unspecified)
board.cache_hierarchy.ruby_system.L2Cache_Controller.MT_MB.L1_GETX           46      0.00%      0.00% (Unspecified)
board.cache_hierarchy.ruby_system.L2Cache_Controller.MT_MB.Exclusive_Unblock        36265      0.00%      0.00% (Unspecified)
board.cache_hierarchy.ruby_system.L2Cache_Controller.MT_IIB.L1_GETS            6      0.00%      0.00% (Unspecified)
board.cache_hierarchy.ruby_system.L2Cache_Controller.MT_IIB.WB_Data        31386      0.00%      0.00% (Unspecified)
board.cache_hierarchy.ruby_system.L2Cache_Controller.MT_IIB.WB_Data_clean           21      0.00%      0.00% (Unspecified)
board.cache_hierarchy.ruby_system.L2Cache_Controller.MT_SB.L1_GETS            4      0.00%      0.00% (Unspecified)
board.cache_hierarchy.ruby_system.L2Cache_Controller.MT_SB.Unblock        31407      0.00%      0.00% (Unspecified)
board.cache_hierarchy.ruby_system.RequestType.LD.latency_hist_seqr::bucket_size          256                       (Unspecified)
board.cache_hierarchy.ruby_system.RequestType.LD.latency_hist_seqr::max_bucket         2559                       (Unspecified)
board.cache_hierarchy.ruby_system.RequestType.LD.latency_hist_seqr::samples       745424                       (Unspecified)
board.cache_hierarchy.ruby_system.RequestType.LD.latency_hist_seqr::mean     2.133014                       (Unspecified)
board.cache_hierarchy.ruby_system.RequestType.LD.latency_hist_seqr::gmean     1.152232                       (Unspecified)
board.cache_hierarchy.ruby_system.RequestType.LD.latency_hist_seqr::stdev    10.633715                       (Unspecified)
board.cache_hierarchy.ruby_system.RequestType.LD.latency_hist_seqr |      745309     99.98%     99.98% |          61      0.01%     99.99% |          33      0.00%    100.00% |          18      0.00%    100.00% |           2      0.00%    100.00% |           1      0.00%    100.00% |           0      0.00%    100.00% |           0      0.00%    100.00% |           0      0.00%    100.00% |           0      0.00%    100.00% (Unspecified)
board.cache_hierarchy.ruby_system.RequestType.LD.latency_hist_seqr::total       745424                       (Unspecified)
board.cache_hierarchy.ruby_system.RequestType.LD.hit_latency_hist_seqr::bucket_size            1                       (Unspecified)
board.cache_hierarchy.ruby_system.RequestType.LD.hit_latency_hist_seqr::max_bucket            9                       (Unspecified)
board.cache_hierarchy.ruby_system.RequestType.LD.hit_latency_hist_seqr::samples       709789                       (Unspecified)
board.cache_hierarchy.ruby_system.RequestType.LD.hit_latency_hist_seqr::mean            1                       (Unspecified)
board.cache_hierarchy.ruby_system.RequestType.LD.hit_latency_hist_seqr::gmean            1                       (Unspecified)
board.cache_hierarchy.ruby_system.RequestType.LD.hit_latency_hist_seqr |           0      0.00%      0.00% |      709789    100.00%    100.00% |           0      0.00%    100.00% |           0      0.00%    100.00% |           0      0.00%    100.00% |           0      0.00%    100.00% |           0      0.00%    100.00% |           0      0.00%    100.00% |           0      0.00%    100.00% |           0      0.00%    100.00% (Unspecified)
board.cache_hierarchy.ruby_system.RequestType.LD.hit_latency_hist_seqr::total       709789                       (Unspecified)
board.cache_hierarchy.ruby_system.RequestType.LD.miss_latency_hist_seqr::bucket_size          256                       (Unspecified)
board.cache_hierarchy.ruby_system.RequestType.LD.miss_latency_hist_seqr::max_bucket         2559                       (Unspecified)
board.cache_hierarchy.ruby_system.RequestType.LD.miss_latency_hist_seqr::samples        35635                       (Unspecified)
board.cache_hierarchy.ruby_system.RequestType.LD.miss_latency_hist_seqr::mean    24.700744                       (Unspecified)
board.cache_hierarchy.ruby_system.RequestType.LD.miss_latency_hist_seqr::gmean    19.377967                       (Unspecified)
board.cache_hierarchy.ruby_system.RequestType.LD.miss_latency_hist_seqr::stdev    42.784726                       (Unspecified)
board.cache_hierarchy.ruby_system.RequestType.LD.miss_latency_hist_seqr |       35520     99.68%     99.68% |          61      0.17%     99.85% |          33      0.09%     99.94% |          18      0.05%     99.99% |           2      0.01%    100.00% |           1      0.00%    100.00% |           0      0.00%    100.00% |           0      0.00%    100.00% |           0      0.00%    100.00% |           0      0.00%    100.00% (Unspecified)
board.cache_hierarchy.ruby_system.RequestType.LD.miss_latency_hist_seqr::total        35635                       (Unspecified)
board.cache_hierarchy.ruby_system.RequestType.ST.latency_hist_seqr::bucket_size          128                       (Unspecified)
board.cache_hierarchy.ruby_system.RequestType.ST.latency_hist_seqr::max_bucket         1279                       (Unspecified)
board.cache_hierarchy.ruby_system.RequestType.ST.latency_hist_seqr::samples       139559                       (Unspecified)
board.cache_hierarchy.ruby_system.RequestType.ST.latency_hist_seqr::mean    11.805287                       (Unspecified)
board.cache_hierarchy.ruby_system.RequestType.ST.latency_hist_seqr::gmean     4.191798                       (Unspecified)
board.cache_hierarchy.ruby_system.RequestType.ST.latency_hist_seqr::stdev    14.700276                       (Unspecified)
board.cache_hierarchy.ruby_system.RequestType.ST.latency_hist_seqr |      139386     99.88%     99.88% |         153      0.11%     99.99% |           7      0.01%     99.99% |          10      0.01%    100.00% |           1      0.00%    100.00% |           0      0.00%    100.00% |           2      0.00%    100.00% |           0      0.00%    100.00% |           0      0.00%    100.00% |           0      0.00%    100.00% (Unspecified)
board.cache_hierarchy.ruby_system.RequestType.ST.latency_hist_seqr::total       139559                       (Unspecified)
board.cache_hierarchy.ruby_system.RequestType.ST.hit_latency_hist_seqr::bucket_size            1                       (Unspecified)
board.cache_hierarchy.ruby_system.RequestType.ST.hit_latency_hist_seqr::max_bucket            9                       (Unspecified)
board.cache_hierarchy.ruby_system.RequestType.ST.hit_latency_hist_seqr::samples        76106                       (Unspecified)
board.cache_hierarchy.ruby_system.RequestType.ST.hit_latency_hist_seqr::mean            1                       (Unspecified)
board.cache_hierarchy.ruby_system.RequestType.ST.hit_latency_hist_seqr::gmean            1                       (Unspecified)
board.cache_hierarchy.ruby_system.RequestType.ST.hit_latency_hist_seqr |           0      0.00%      0.00% |       76106    100.00%    100.00% |           0      0.00%    100.00% |           0      0.00%    100.00% |           0      0.00%    100.00% |           0      0.00%    100.00% |           0      0.00%    100.00% |           0      0.00%    100.00% |           0      0.00%    100.00% |           0      0.00%    100.00% (Unspecified)
board.cache_hierarchy.ruby_system.RequestType.ST.hit_latency_hist_seqr::total        76106                       (Unspecified)
board.cache_hierarchy.ruby_system.RequestType.ST.miss_latency_hist_seqr::bucket_size          128                       (Unspecified)
board.cache_hierarchy.ruby_system.RequestType.ST.miss_latency_hist_seqr::max_bucket         1279                       (Unspecified)
board.cache_hierarchy.ruby_system.RequestType.ST.miss_latency_hist_seqr::samples        63453                       (Unspecified)
board.cache_hierarchy.ruby_system.RequestType.ST.miss_latency_hist_seqr::mean    24.765228                       (Unspecified)
board.cache_hierarchy.ruby_system.RequestType.ST.miss_latency_hist_seqr::gmean    23.383637                       (Unspecified)
board.cache_hierarchy.ruby_system.RequestType.ST.miss_latency_hist_seqr::stdev    12.934105                       (Unspecified)
board.cache_hierarchy.ruby_system.RequestType.ST.miss_latency_hist_seqr |       63280     99.73%     99.73% |         153      0.24%     99.97% |           7      0.01%     99.98% |          10      0.02%    100.00% |           1      0.00%    100.00% |           0      0.00%    100.00% |           2      0.00%    100.00% |           0      0.00%    100.00% |           0      0.00%    100.00% |           0      0.00%    100.00% (Unspecified)
board.cache_hierarchy.ruby_system.RequestType.ST.miss_latency_hist_seqr::total        63453                       (Unspecified)
board.cache_hierarchy.ruby_system.RequestType.IFETCH.latency_hist_seqr::bucket_size          128                       (Unspecified)
board.cache_hierarchy.ruby_system.RequestType.IFETCH.latency_hist_seqr::max_bucket         1279                       (Unspecified)
board.cache_hierarchy.ruby_system.RequestType.IFETCH.latency_hist_seqr::samples      2213926                       (Unspecified)
board.cache_hierarchy.ruby_system.RequestType.IFETCH.latency_hist_seqr::mean     1.032060                       (Unspecified)
board.cache_hierarchy.ruby_system.RequestType.IFETCH.latency_hist_seqr::gmean     1.001091                       (Unspecified)
board.cache_hierarchy.ruby_system.RequestType.IFETCH.latency_hist_seqr::stdev     2.788651                       (Unspecified)
board.cache_hierarchy.ruby_system.RequestType.IFETCH.latency_hist_seqr |     2213566     99.98%     99.98% |         330      0.01%    100.00% |           6      0.00%    100.00% |          18      0.00%    100.00% |           1      0.00%    100.00% |           0      0.00%    100.00% |           2      0.00%    100.00% |           3      0.00%    100.00% |           0      0.00%    100.00% |           0      0.00%    100.00% (Unspecified)
board.cache_hierarchy.ruby_system.RequestType.IFETCH.latency_hist_seqr::total      2213926                       (Unspecified)
board.cache_hierarchy.ruby_system.RequestType.IFETCH.hit_latency_hist_seqr::bucket_size            1                       (Unspecified)
board.cache_hierarchy.ruby_system.RequestType.IFETCH.hit_latency_hist_seqr::max_bucket            9                       (Unspecified)
board.cache_hierarchy.ruby_system.RequestType.IFETCH.hit_latency_hist_seqr::samples      2213355                       (Unspecified)
board.cache_hierarchy.ruby_system.RequestType.IFETCH.hit_latency_hist_seqr::mean            1                       (Unspecified)
board.cache_hierarchy.ruby_system.RequestType.IFETCH.hit_latency_hist_seqr::gmean            1                       (Unspecified)
board.cache_hierarchy.ruby_system.RequestType.IFETCH.hit_latency_hist_seqr |           0      0.00%      0.00% |     2213355    100.00%    100.00% |           0      0.00%    100.00% |           0      0.00%    100.00% |           0      0.00%    100.00% |           0      0.00%    100.00% |           0      0.00%    100.00% |           0      0.00%    100.00% |           0      0.00%    100.00% |           0      0.00%    100.00% (Unspecified)
board.cache_hierarchy.ruby_system.RequestType.IFETCH.hit_latency_hist_seqr::total      2213355                       (Unspecified)
board.cache_hierarchy.ruby_system.RequestType.IFETCH.miss_latency_hist_seqr::bucket_size          128                       (Unspecified)
board.cache_hierarchy.ruby_system.RequestType.IFETCH.miss_latency_hist_seqr::max_bucket         1279                       (Unspecified)
board.cache_hierarchy.ruby_system.RequestType.IFETCH.miss_latency_hist_seqr::samples          571                       (Unspecified)
board.cache_hierarchy.ruby_system.RequestType.IFETCH.miss_latency_hist_seqr::mean   125.306480                       (Unspecified)
board.cache_hierarchy.ruby_system.RequestType.IFETCH.miss_latency_hist_seqr::gmean    68.601005                       (Unspecified)
board.cache_hierarchy.ruby_system.RequestType.IFETCH.miss_latency_hist_seqr::stdev   121.365646                       (Unspecified)
board.cache_hierarchy.ruby_system.RequestType.IFETCH.miss_latency_hist_seqr |         211     36.95%     36.95% |         330     57.79%     94.75% |           6      1.05%     95.80% |          18      3.15%     98.95% |           1      0.18%     99.12% |           0      0.00%     99.12% |           2      0.35%     99.47% |           3      0.53%    100.00% |           0      0.00%    100.00% |           0      0.00%    100.00% (Unspecified)
board.cache_hierarchy.ruby_system.RequestType.IFETCH.miss_latency_hist_seqr::total          571                       (Unspecified)
board.cache_hierarchy.ruby_system.RequestType.Load_Linked.latency_hist_seqr::bucket_size           32                       (Unspecified)
board.cache_hierarchy.ruby_system.RequestType.Load_Linked.latency_hist_seqr::max_bucket          319                       (Unspecified)
board.cache_hierarchy.ruby_system.RequestType.Load_Linked.latency_hist_seqr::samples           13                       (Unspecified)
board.cache_hierarchy.ruby_system.RequestType.Load_Linked.latency_hist_seqr::mean    29.615385                       (Unspecified)
board.cache_hierarchy.ruby_system.RequestType.Load_Linked.latency_hist_seqr::gmean     2.229359                       (Unspecified)
board.cache_hierarchy.ruby_system.RequestType.Load_Linked.latency_hist_seqr::stdev    71.463905                       (Unspecified)
board.cache_hierarchy.ruby_system.RequestType.Load_Linked.latency_hist_seqr |          11     84.62%     84.62% |           0      0.00%     84.62% |           0      0.00%     84.62% |           0      0.00%     84.62% |           1      7.69%     92.31% |           0      0.00%     92.31% |           0      0.00%     92.31% |           1      7.69%    100.00% |           0      0.00%    100.00% |           0      0.00%    100.00% (Unspecified)
board.cache_hierarchy.ruby_system.RequestType.Load_Linked.latency_hist_seqr::total           13                       (Unspecified)
board.cache_hierarchy.ruby_system.RequestType.Load_Linked.hit_latency_hist_seqr::bucket_size            1                       (Unspecified)
board.cache_hierarchy.ruby_system.RequestType.Load_Linked.hit_latency_hist_seqr::max_bucket            9                       (Unspecified)
board.cache_hierarchy.ruby_system.RequestType.Load_Linked.hit_latency_hist_seqr::samples           11                       (Unspecified)
board.cache_hierarchy.ruby_system.RequestType.Load_Linked.hit_latency_hist_seqr::mean            1                       (Unspecified)
board.cache_hierarchy.ruby_system.RequestType.Load_Linked.hit_latency_hist_seqr::gmean            1                       (Unspecified)
board.cache_hierarchy.ruby_system.RequestType.Load_Linked.hit_latency_hist_seqr |           0      0.00%      0.00% |          11    100.00%    100.00% |           0      0.00%    100.00% |           0      0.00%    100.00% |           0      0.00%    100.00% |           0      0.00%    100.00% |           0      0.00%    100.00% |           0      0.00%    100.00% |           0      0.00%    100.00% |           0      0.00%    100.00% (Unspecified)
board.cache_hierarchy.ruby_system.RequestType.Load_Linked.hit_latency_hist_seqr::total           11                       (Unspecified)
board.cache_hierarchy.ruby_system.RequestType.Load_Linked.miss_latency_hist_seqr::bucket_size           32                       (Unspecified)
board.cache_hierarchy.ruby_system.RequestType.Load_Linked.miss_latency_hist_seqr::max_bucket          319                       (Unspecified)
board.cache_hierarchy.ruby_system.RequestType.Load_Linked.miss_latency_hist_seqr::samples            2                       (Unspecified)
board.cache_hierarchy.ruby_system.RequestType.Load_Linked.miss_latency_hist_seqr::mean          187                       (Unspecified)
board.cache_hierarchy.ruby_system.RequestType.Load_Linked.miss_latency_hist_seqr::gmean   183.303028                       (Unspecified)
board.cache_hierarchy.ruby_system.RequestType.Load_Linked.miss_latency_hist_seqr::stdev    52.325902                       (Unspecified)
board.cache_hierarchy.ruby_system.RequestType.Load_Linked.miss_latency_hist_seqr |           0      0.00%      0.00% |           0      0.00%      0.00% |           0      0.00%      0.00% |           0      0.00%      0.00% |           1     50.00%     50.00% |           0      0.00%     50.00% |           0      0.00%     50.00% |           1     50.00%    100.00% |           0      0.00%    100.00% |           0      0.00%    100.00% (Unspecified)
board.cache_hierarchy.ruby_system.RequestType.Load_Linked.miss_latency_hist_seqr::total            2                       (Unspecified)
board.cache_hierarchy.ruby_system.RequestType.Store_Conditional.latency_hist_seqr::bucket_size            1                       (Unspecified)
board.cache_hierarchy.ruby_system.RequestType.Store_Conditional.latency_hist_seqr::max_bucket            9                       (Unspecified)
board.cache_hierarchy.ruby_system.RequestType.Store_Conditional.latency_hist_seqr::samples           13                       (Unspecified)
board.cache_hierarchy.ruby_system.RequestType.Store_Conditional.latency_hist_seqr::mean            1                       (Unspecified)
board.cache_hierarchy.ruby_system.RequestType.Store_Conditional.latency_hist_seqr::gmean            1                       (Unspecified)
board.cache_hierarchy.ruby_system.RequestType.Store_Conditional.latency_hist_seqr |           0      0.00%      0.00% |          13    100.00%    100.00% |           0      0.00%    100.00% |           0      0.00%    100.00% |           0      0.00%    100.00% |           0      0.00%    100.00% |           0      0.00%    100.00% |           0      0.00%    100.00% |           0      0.00%    100.00% |           0      0.00%    100.00% (Unspecified)
board.cache_hierarchy.ruby_system.RequestType.Store_Conditional.latency_hist_seqr::total           13                       (Unspecified)
board.cache_hierarchy.ruby_system.RequestType.Store_Conditional.hit_latency_hist_seqr::bucket_size            1                       (Unspecified)
board.cache_hierarchy.ruby_system.RequestType.Store_Conditional.hit_latency_hist_seqr::max_bucket            9                       (Unspecified)
board.cache_hierarchy.ruby_system.RequestType.Store_Conditional.hit_latency_hist_seqr::samples           13                       (Unspecified)
board.cache_hierarchy.ruby_system.RequestType.Store_Conditional.hit_latency_hist_seqr::mean            1                       (Unspecified)
board.cache_hierarchy.ruby_system.RequestType.Store_Conditional.hit_latency_hist_seqr::gmean            1                       (Unspecified)
board.cache_hierarchy.ruby_system.RequestType.Store_Conditional.hit_latency_hist_seqr |           0      0.00%      0.00% |          13    100.00%    100.00% |           0      0.00%    100.00% |           0      0.00%    100.00% |           0      0.00%    100.00% |           0      0.00%    100.00% |           0      0.00%    100.00% |           0      0.00%    100.00% |           0      0.00%    100.00% |           0      0.00%    100.00% (Unspecified)
board.cache_hierarchy.ruby_system.RequestType.Store_Conditional.hit_latency_hist_seqr::total           13                       (Unspecified)
board.cache_hierarchy.ruby_system.directory_controllers.power_state.pwrStateResidencyTicks::UNDEFINED   2252678400                       # Cumulative time (in ticks) in various power states (Tick)
board.cache_hierarchy.ruby_system.directory_controllers.requestToDir.m_msg_count         1948                       # Number of messages passed the buffer (Count)
board.cache_hierarchy.ruby_system.directory_controllers.requestToDir.m_buf_msgs     0.000881                       # Average number of messages in buffer ((Count/Tick))
board.cache_hierarchy.ruby_system.directory_controllers.requestToMemory.m_msg_count         3052                       # Number of messages passed the buffer (Count)
board.cache_hierarchy.ruby_system.directory_controllers.requestToMemory.m_buf_msgs     0.001393                       # Average number of messages in buffer ((Count/Tick))
board.cache_hierarchy.ruby_system.directory_controllers.requestToMemory.m_stall_time         8991                       # Total number of ticks messages were stalled in this buffer (Tick)
board.cache_hierarchy.ruby_system.directory_controllers.requestToMemory.m_avg_stall_time     2.945937                       # Average stall ticks per message ((Tick/Count))
board.cache_hierarchy.ruby_system.directory_controllers.responseFromDir.m_msg_count         3896                       # Number of messages passed the buffer (Count)
board.cache_hierarchy.ruby_system.directory_controllers.responseFromDir.m_buf_msgs     0.001763                       # Average number of messages in buffer ((Count/Tick))
board.cache_hierarchy.ruby_system.directory_controllers.responseFromMemory.m_msg_count         3052                       # Number of messages passed the buffer (Count)
board.cache_hierarchy.ruby_system.directory_controllers.responseFromMemory.m_buf_msgs     0.002343                       # Average number of messages in buffer ((Count/Tick))
board.cache_hierarchy.ruby_system.directory_controllers.responseToDir.m_msg_count         1948                       # Number of messages passed the buffer (Count)
board.cache_hierarchy.ruby_system.directory_controllers.responseToDir.m_buf_msgs     0.000881                       # Average number of messages in buffer ((Count/Tick))
board.cache_hierarchy.ruby_system.l1_controllers0.delayHistogram::samples        56229                       # delay_histogram (Unspecified)
board.cache_hierarchy.ruby_system.l1_controllers0.delayHistogram::mean     0.000036                       # delay_histogram (Unspecified)
board.cache_hierarchy.ruby_system.l1_controllers0.delayHistogram::stdev     0.008434                       # delay_histogram (Unspecified)
board.cache_hierarchy.ruby_system.l1_controllers0.delayHistogram::0        56228    100.00%    100.00% # delay_histogram (Unspecified)
board.cache_hierarchy.ruby_system.l1_controllers0.delayHistogram::2            1      0.00%    100.00% # delay_histogram (Unspecified)
board.cache_hierarchy.ruby_system.l1_controllers0.delayHistogram::total        56229                       # delay_histogram (Unspecified)
board.cache_hierarchy.ruby_system.l1_controllers0.L1Dcache.m_demand_hits       192720                       # Number of cache demand hits (Unspecified)
board.cache_hierarchy.ruby_system.l1_controllers0.L1Dcache.m_demand_misses        24037                       # Number of cache demand misses (Unspecified)
board.cache_hierarchy.ruby_system.l1_controllers0.L1Dcache.m_demand_accesses       216757                       # Number of cache demand accesses (Unspecified)
board.cache_hierarchy.ruby_system.l1_controllers0.L1Icache.m_demand_hits       534933                       # Number of cache demand hits (Unspecified)
board.cache_hierarchy.ruby_system.l1_controllers0.L1Icache.m_demand_misses          255                       # Number of cache demand misses (Unspecified)
board.cache_hierarchy.ruby_system.l1_controllers0.L1Icache.m_demand_accesses       535188                       # Number of cache demand accesses (Unspecified)
board.cache_hierarchy.ruby_system.l1_controllers0.mandatoryQueue.m_msg_count       751945                       # Number of messages passed the buffer (Count)
board.cache_hierarchy.ruby_system.l1_controllers0.mandatoryQueue.m_buf_msgs     0.340258                       # Average number of messages in buffer ((Count/Tick))
board.cache_hierarchy.ruby_system.l1_controllers0.power_state.pwrStateResidencyTicks::UNDEFINED   2252678400                       # Cumulative time (in ticks) in various power states (Tick)
board.cache_hierarchy.ruby_system.l1_controllers0.prefetcher.RubyPrefetcher.numMissObserved            0                       # Number of misses observed (Unspecified)
board.cache_hierarchy.ruby_system.l1_controllers0.prefetcher.RubyPrefetcher.numAllocatedStreams            0                       # Number of streams allocated for prefetching (Unspecified)
board.cache_hierarchy.ruby_system.l1_controllers0.prefetcher.RubyPrefetcher.numPrefetchRequested            0                       # Number of prefetch requests made (Unspecified)
board.cache_hierarchy.ruby_system.l1_controllers0.prefetcher.RubyPrefetcher.numHits            0                       # Number of prefetched blocks accessed (for the first time) (Unspecified)
board.cache_hierarchy.ruby_system.l1_controllers0.prefetcher.RubyPrefetcher.numPartialHits            0                       # Number of misses observed for a block being prefetched (Unspecified)
board.cache_hierarchy.ruby_system.l1_controllers0.prefetcher.RubyPrefetcher.numPagesCrossed            0                       # Number of prefetches across pages (Unspecified)
board.cache_hierarchy.ruby_system.l1_controllers0.prefetcher.RubyPrefetcher.numMissedPrefetchedBlocks            0                       # Number of misses for blocks that were prefetched, yet missed (Unspecified)
board.cache_hierarchy.ruby_system.l1_controllers0.requestFromL1Cache.m_msg_count        25388                       # Number of messages passed the buffer (Count)
board.cache_hierarchy.ruby_system.l1_controllers0.requestFromL1Cache.m_buf_msgs     0.022976                       # Average number of messages in buffer ((Count/Tick))
board.cache_hierarchy.ruby_system.l1_controllers0.requestToL1Cache.m_msg_count        23410                       # Number of messages passed the buffer (Count)
board.cache_hierarchy.ruby_system.l1_controllers0.requestToL1Cache.m_buf_msgs     0.010593                       # Average number of messages in buffer ((Count/Tick))
board.cache_hierarchy.ruby_system.l1_controllers0.responseFromL1Cache.m_msg_count        31033                       # Number of messages passed the buffer (Count)
board.cache_hierarchy.ruby_system.l1_controllers0.responseFromL1Cache.m_buf_msgs     0.028085                       # Average number of messages in buffer ((Count/Tick))
board.cache_hierarchy.ruby_system.l1_controllers0.responseToL1Cache.m_msg_count        32819                       # Number of messages passed the buffer (Count)
board.cache_hierarchy.ruby_system.l1_controllers0.responseToL1Cache.m_buf_msgs     0.014851                       # Average number of messages in buffer ((Count/Tick))
board.cache_hierarchy.ruby_system.l1_controllers0.sequencer.power_state.pwrStateResidencyTicks::UNDEFINED   2252678400                       # Cumulative time (in ticks) in various power states (Tick)
board.cache_hierarchy.ruby_system.l1_controllers0.unblockFromL1Cache.m_msg_count        24035                       # Number of messages passed the buffer (Count)
board.cache_hierarchy.ruby_system.l1_controllers0.unblockFromL1Cache.m_buf_msgs     0.010876                       # Average number of messages in buffer ((Count/Tick))
board.cache_hierarchy.ruby_system.l1_controllers1.delayHistogram::samples        55371                       # delay_histogram (Unspecified)
board.cache_hierarchy.ruby_system.l1_controllers1.delayHistogram::0        55371    100.00%    100.00% # delay_histogram (Unspecified)
board.cache_hierarchy.ruby_system.l1_controllers1.delayHistogram::total        55371                       # delay_histogram (Unspecified)
board.cache_hierarchy.ruby_system.l1_controllers1.L1Dcache.m_demand_hits       196316                       # Number of cache demand hits (Unspecified)
board.cache_hierarchy.ruby_system.l1_controllers1.L1Dcache.m_demand_misses        24100                       # Number of cache demand misses (Unspecified)
board.cache_hierarchy.ruby_system.l1_controllers1.L1Dcache.m_demand_accesses       220416                       # Number of cache demand accesses (Unspecified)
board.cache_hierarchy.ruby_system.l1_controllers1.L1Icache.m_demand_hits       550910                       # Number of cache demand hits (Unspecified)
board.cache_hierarchy.ruby_system.l1_controllers1.L1Icache.m_demand_misses          104                       # Number of cache demand misses (Unspecified)
board.cache_hierarchy.ruby_system.l1_controllers1.L1Icache.m_demand_accesses       551014                       # Number of cache demand accesses (Unspecified)
board.cache_hierarchy.ruby_system.l1_controllers1.mandatoryQueue.m_msg_count       771430                       # Number of messages passed the buffer (Count)
board.cache_hierarchy.ruby_system.l1_controllers1.mandatoryQueue.m_buf_msgs     0.349075                       # Average number of messages in buffer ((Count/Tick))
board.cache_hierarchy.ruby_system.l1_controllers1.power_state.pwrStateResidencyTicks::UNDEFINED   2252678400                       # Cumulative time (in ticks) in various power states (Tick)
board.cache_hierarchy.ruby_system.l1_controllers1.prefetcher.RubyPrefetcher.numMissObserved            0                       # Number of misses observed (Unspecified)
board.cache_hierarchy.ruby_system.l1_controllers1.prefetcher.RubyPrefetcher.numAllocatedStreams            0                       # Number of streams allocated for prefetching (Unspecified)
board.cache_hierarchy.ruby_system.l1_controllers1.prefetcher.RubyPrefetcher.numPrefetchRequested            0                       # Number of prefetch requests made (Unspecified)
board.cache_hierarchy.ruby_system.l1_controllers1.prefetcher.RubyPrefetcher.numHits            0                       # Number of prefetched blocks accessed (for the first time) (Unspecified)
board.cache_hierarchy.ruby_system.l1_controllers1.prefetcher.RubyPrefetcher.numPartialHits            0                       # Number of misses observed for a block being prefetched (Unspecified)
board.cache_hierarchy.ruby_system.l1_controllers1.prefetcher.RubyPrefetcher.numPagesCrossed            0                       # Number of prefetches across pages (Unspecified)
board.cache_hierarchy.ruby_system.l1_controllers1.prefetcher.RubyPrefetcher.numMissedPrefetchedBlocks            0                       # Number of misses for blocks that were prefetched, yet missed (Unspecified)
board.cache_hierarchy.ruby_system.l1_controllers1.requestFromL1Cache.m_msg_count        24743                       # Number of messages passed the buffer (Count)
board.cache_hierarchy.ruby_system.l1_controllers1.requestFromL1Cache.m_buf_msgs     0.022393                       # Average number of messages in buffer ((Count/Tick))
board.cache_hierarchy.ruby_system.l1_controllers1.requestToL1Cache.m_msg_count        22946                       # Number of messages passed the buffer (Count)
board.cache_hierarchy.ruby_system.l1_controllers1.requestToL1Cache.m_buf_msgs     0.010383                       # Average number of messages in buffer ((Count/Tick))
board.cache_hierarchy.ruby_system.l1_controllers1.responseFromL1Cache.m_msg_count        30478                       # Number of messages passed the buffer (Count)
board.cache_hierarchy.ruby_system.l1_controllers1.responseFromL1Cache.m_buf_msgs     0.027583                       # Average number of messages in buffer ((Count/Tick))
board.cache_hierarchy.ruby_system.l1_controllers1.responseToL1Cache.m_msg_count        32425                       # Number of messages passed the buffer (Count)
board.cache_hierarchy.ruby_system.l1_controllers1.responseToL1Cache.m_buf_msgs     0.014672                       # Average number of messages in buffer ((Count/Tick))
board.cache_hierarchy.ruby_system.l1_controllers1.sequencer.power_state.pwrStateResidencyTicks::UNDEFINED   2252678400                       # Cumulative time (in ticks) in various power states (Tick)
board.cache_hierarchy.ruby_system.l1_controllers1.unblockFromL1Cache.m_msg_count        24091                       # Number of messages passed the buffer (Count)
board.cache_hierarchy.ruby_system.l1_controllers1.unblockFromL1Cache.m_buf_msgs     0.010901                       # Average number of messages in buffer ((Count/Tick))
board.cache_hierarchy.ruby_system.l1_controllers2.delayHistogram::samples        58692                       # delay_histogram (Unspecified)
board.cache_hierarchy.ruby_system.l1_controllers2.delayHistogram::0        58692    100.00%    100.00% # delay_histogram (Unspecified)
board.cache_hierarchy.ruby_system.l1_controllers2.delayHistogram::total        58692                       # delay_histogram (Unspecified)
board.cache_hierarchy.ruby_system.l1_controllers2.L1Dcache.m_demand_hits       198185                       # Number of cache demand hits (Unspecified)
board.cache_hierarchy.ruby_system.l1_controllers2.L1Dcache.m_demand_misses        25453                       # Number of cache demand misses (Unspecified)
board.cache_hierarchy.ruby_system.l1_controllers2.L1Dcache.m_demand_accesses       223638                       # Number of cache demand accesses (Unspecified)
board.cache_hierarchy.ruby_system.l1_controllers2.L1Icache.m_demand_hits       562724                       # Number of cache demand hits (Unspecified)
board.cache_hierarchy.ruby_system.l1_controllers2.L1Icache.m_demand_misses          104                       # Number of cache demand misses (Unspecified)
board.cache_hierarchy.ruby_system.l1_controllers2.L1Icache.m_demand_accesses       562828                       # Number of cache demand accesses (Unspecified)
board.cache_hierarchy.ruby_system.l1_controllers2.mandatoryQueue.m_msg_count       786466                       # Number of messages passed the buffer (Count)
board.cache_hierarchy.ruby_system.l1_controllers2.mandatoryQueue.m_buf_msgs     0.355879                       # Average number of messages in buffer ((Count/Tick))
board.cache_hierarchy.ruby_system.l1_controllers2.power_state.pwrStateResidencyTicks::UNDEFINED   2252678400                       # Cumulative time (in ticks) in various power states (Tick)
board.cache_hierarchy.ruby_system.l1_controllers2.prefetcher.RubyPrefetcher.numMissObserved            0                       # Number of misses observed (Unspecified)
board.cache_hierarchy.ruby_system.l1_controllers2.prefetcher.RubyPrefetcher.numAllocatedStreams            0                       # Number of streams allocated for prefetching (Unspecified)
board.cache_hierarchy.ruby_system.l1_controllers2.prefetcher.RubyPrefetcher.numPrefetchRequested            0                       # Number of prefetch requests made (Unspecified)
board.cache_hierarchy.ruby_system.l1_controllers2.prefetcher.RubyPrefetcher.numHits            0                       # Number of prefetched blocks accessed (for the first time) (Unspecified)
board.cache_hierarchy.ruby_system.l1_controllers2.prefetcher.RubyPrefetcher.numPartialHits            0                       # Number of misses observed for a block being prefetched (Unspecified)
board.cache_hierarchy.ruby_system.l1_controllers2.prefetcher.RubyPrefetcher.numPagesCrossed            0                       # Number of prefetches across pages (Unspecified)
board.cache_hierarchy.ruby_system.l1_controllers2.prefetcher.RubyPrefetcher.numMissedPrefetchedBlocks            0                       # Number of misses for blocks that were prefetched, yet missed (Unspecified)
board.cache_hierarchy.ruby_system.l1_controllers2.requestFromL1Cache.m_msg_count        26107                       # Number of messages passed the buffer (Count)
board.cache_hierarchy.ruby_system.l1_controllers2.requestFromL1Cache.m_buf_msgs     0.023627                       # Average number of messages in buffer ((Count/Tick))
board.cache_hierarchy.ruby_system.l1_controllers2.requestToL1Cache.m_msg_count        24489                       # Number of messages passed the buffer (Count)
board.cache_hierarchy.ruby_system.l1_controllers2.requestToL1Cache.m_buf_msgs     0.011081                       # Average number of messages in buffer ((Count/Tick))
board.cache_hierarchy.ruby_system.l1_controllers2.responseFromL1Cache.m_msg_count        32633                       # Number of messages passed the buffer (Count)
board.cache_hierarchy.ruby_system.l1_controllers2.responseFromL1Cache.m_buf_msgs     0.029533                       # Average number of messages in buffer ((Count/Tick))
board.cache_hierarchy.ruby_system.l1_controllers2.responseToL1Cache.m_msg_count        34203                       # Number of messages passed the buffer (Count)
board.cache_hierarchy.ruby_system.l1_controllers2.responseToL1Cache.m_buf_msgs     0.015477                       # Average number of messages in buffer ((Count/Tick))
board.cache_hierarchy.ruby_system.l1_controllers2.sequencer.power_state.pwrStateResidencyTicks::UNDEFINED   2252678400                       # Cumulative time (in ticks) in various power states (Tick)
board.cache_hierarchy.ruby_system.l1_controllers2.unblockFromL1Cache.m_msg_count        25432                       # Number of messages passed the buffer (Count)
board.cache_hierarchy.ruby_system.l1_controllers2.unblockFromL1Cache.m_buf_msgs     0.011508                       # Average number of messages in buffer ((Count/Tick))
board.cache_hierarchy.ruby_system.l1_controllers3.delayHistogram::samples        58761                       # delay_histogram (Unspecified)
board.cache_hierarchy.ruby_system.l1_controllers3.delayHistogram::mean     0.000068                       # delay_histogram (Unspecified)
board.cache_hierarchy.ruby_system.l1_controllers3.delayHistogram::stdev     0.011668                       # delay_histogram (Unspecified)
board.cache_hierarchy.ruby_system.l1_controllers3.delayHistogram::0        58759    100.00%    100.00% # delay_histogram (Unspecified)
board.cache_hierarchy.ruby_system.l1_controllers3.delayHistogram::2            2      0.00%    100.00% # delay_histogram (Unspecified)
board.cache_hierarchy.ruby_system.l1_controllers3.delayHistogram::total        58761                       # delay_histogram (Unspecified)
board.cache_hierarchy.ruby_system.l1_controllers3.L1Dcache.m_demand_hits       198698                       # Number of cache demand hits (Unspecified)
board.cache_hierarchy.ruby_system.l1_controllers3.L1Dcache.m_demand_misses        25500                       # Number of cache demand misses (Unspecified)
board.cache_hierarchy.ruby_system.l1_controllers3.L1Dcache.m_demand_accesses       224198                       # Number of cache demand accesses (Unspecified)
board.cache_hierarchy.ruby_system.l1_controllers3.L1Icache.m_demand_hits       564788                       # Number of cache demand hits (Unspecified)
board.cache_hierarchy.ruby_system.l1_controllers3.L1Icache.m_demand_misses          108                       # Number of cache demand misses (Unspecified)
board.cache_hierarchy.ruby_system.l1_controllers3.L1Icache.m_demand_accesses       564896                       # Number of cache demand accesses (Unspecified)
board.cache_hierarchy.ruby_system.l1_controllers3.mandatoryQueue.m_msg_count       789094                       # Number of messages passed the buffer (Count)
board.cache_hierarchy.ruby_system.l1_controllers3.mandatoryQueue.m_buf_msgs     0.357068                       # Average number of messages in buffer ((Count/Tick))
board.cache_hierarchy.ruby_system.l1_controllers3.power_state.pwrStateResidencyTicks::UNDEFINED   2252678400                       # Cumulative time (in ticks) in various power states (Tick)
board.cache_hierarchy.ruby_system.l1_controllers3.prefetcher.RubyPrefetcher.numMissObserved            0                       # Number of misses observed (Unspecified)
board.cache_hierarchy.ruby_system.l1_controllers3.prefetcher.RubyPrefetcher.numAllocatedStreams            0                       # Number of streams allocated for prefetching (Unspecified)
board.cache_hierarchy.ruby_system.l1_controllers3.prefetcher.RubyPrefetcher.numPrefetchRequested            0                       # Number of prefetch requests made (Unspecified)
board.cache_hierarchy.ruby_system.l1_controllers3.prefetcher.RubyPrefetcher.numHits            0                       # Number of prefetched blocks accessed (for the first time) (Unspecified)
board.cache_hierarchy.ruby_system.l1_controllers3.prefetcher.RubyPrefetcher.numPartialHits            0                       # Number of misses observed for a block being prefetched (Unspecified)
board.cache_hierarchy.ruby_system.l1_controllers3.prefetcher.RubyPrefetcher.numPagesCrossed            0                       # Number of prefetches across pages (Unspecified)
board.cache_hierarchy.ruby_system.l1_controllers3.prefetcher.RubyPrefetcher.numMissedPrefetchedBlocks            0                       # Number of misses for blocks that were prefetched, yet missed (Unspecified)
board.cache_hierarchy.ruby_system.l1_controllers3.requestFromL1Cache.m_msg_count        26152                       # Number of messages passed the buffer (Count)
board.cache_hierarchy.ruby_system.l1_controllers3.requestFromL1Cache.m_buf_msgs     0.023668                       # Average number of messages in buffer ((Count/Tick))
board.cache_hierarchy.ruby_system.l1_controllers3.requestToL1Cache.m_msg_count        24449                       # Number of messages passed the buffer (Count)
board.cache_hierarchy.ruby_system.l1_controllers3.requestToL1Cache.m_buf_msgs     0.011063                       # Average number of messages in buffer ((Count/Tick))
board.cache_hierarchy.ruby_system.l1_controllers3.responseFromL1Cache.m_msg_count        32557                       # Number of messages passed the buffer (Count)
board.cache_hierarchy.ruby_system.l1_controllers3.responseFromL1Cache.m_buf_msgs     0.029464                       # Average number of messages in buffer ((Count/Tick))
board.cache_hierarchy.ruby_system.l1_controllers3.responseToL1Cache.m_msg_count        34312                       # Number of messages passed the buffer (Count)
board.cache_hierarchy.ruby_system.l1_controllers3.responseToL1Cache.m_buf_msgs     0.015526                       # Average number of messages in buffer ((Count/Tick))
board.cache_hierarchy.ruby_system.l1_controllers3.sequencer.power_state.pwrStateResidencyTicks::UNDEFINED   2252678400                       # Cumulative time (in ticks) in various power states (Tick)
board.cache_hierarchy.ruby_system.l1_controllers3.unblockFromL1Cache.m_msg_count        25477                       # Number of messages passed the buffer (Count)
[...]
board.processor.cores3.core.commitStats0.committedInstType::SimdMatMultAcc            0      0.00%     48.97% # Class of committed instruction. (Count)
board.processor.cores3.core.commitStats0.committedInstType::SimdShift            0      0.00%     48.97% # Class of committed instruction. (Count)
board.processor.cores3.core.commitStats0.committedInstType::SimdShiftAcc            0      0.00%     48.97% # Class of committed instruction. (Count)
board.processor.cores3.core.commitStats0.committedInstType::SimdDiv            0      0.00%     48.97% # Class of committed instruction. (Count)
board.processor.cores3.core.commitStats0.committedInstType::SimdSqrt            0      0.00%     48.97% # Class of committed instruction. (Count)
board.processor.cores3.core.commitStats0.committedInstType::SimdFloatAdd            0      0.00%     48.97% # Class of committed instruction. (Count)
board.processor.cores3.core.commitStats0.committedInstType::SimdFloatAlu            0      0.00%     48.97% # Class of committed instruction. (Count)
board.processor.cores3.core.commitStats0.committedInstType::SimdFloatCmp            0      0.00%     48.97% # Class of committed instruction. (Count)
board.processor.cores3.core.commitStats0.committedInstType::SimdFloatCvt            0      0.00%     48.97% # Class of committed instruction. (Count)
board.processor.cores3.core.commitStats0.committedInstType::SimdFloatDiv            0      0.00%     48.97% # Class of committed instruction. (Count)
board.processor.cores3.core.commitStats0.committedInstType::SimdFloatMisc            0      0.00%     48.97% # Class of committed instruction. (Count)
board.processor.cores3.core.commitStats0.committedInstType::SimdFloatMult            0      0.00%     48.97% # Class of committed instruction. (Count)
board.processor.cores3.core.commitStats0.committedInstType::SimdFloatMultAcc            0      0.00%     48.97% # Class of committed instruction. (Count)
board.processor.cores3.core.commitStats0.committedInstType::SimdFloatMatMultAcc            0      0.00%     48.97% # Class of committed instruction. (Count)
board.processor.cores3.core.commitStats0.committedInstType::SimdFloatSqrt            0      0.00%     48.97% # Class of committed instruction. (Count)
board.processor.cores3.core.commitStats0.committedInstType::SimdReduceAdd            0      0.00%     48.97% # Class of committed instruction. (Count)
board.processor.cores3.core.commitStats0.committedInstType::SimdReduceAlu            0      0.00%     48.97% # Class of committed instruction. (Count)
board.processor.cores3.core.commitStats0.committedInstType::SimdReduceCmp            0      0.00%     48.97% # Class of committed instruction. (Count)
board.processor.cores3.core.commitStats0.committedInstType::SimdFloatReduceAdd            0      0.00%     48.97% # Class of committed instruction. (Count)
board.processor.cores3.core.commitStats0.committedInstType::SimdFloatReduceCmp            0      0.00%     48.97% # Class of committed instruction. (Count)
board.processor.cores3.core.commitStats0.committedInstType::SimdAes            0      0.00%     48.97% # Class of committed instruction. (Count)
board.processor.cores3.core.commitStats0.committedInstType::SimdAesMix            0      0.00%     48.97% # Class of committed instruction. (Count)
board.processor.cores3.core.commitStats0.committedInstType::SimdSha1Hash            0      0.00%     48.97% # Class of committed instruction. (Count)
board.processor.cores3.core.commitStats0.committedInstType::SimdSha1Hash2            0      0.00%     48.97% # Class of committed instruction. (Count)
board.processor.cores3.core.commitStats0.committedInstType::SimdSha256Hash            0      0.00%     48.97% # Class of committed instruction. (Count)
board.processor.cores3.core.commitStats0.committedInstType::SimdSha256Hash2            0      0.00%     48.97% # Class of committed instruction. (Count)
board.processor.cores3.core.commitStats0.committedInstType::SimdShaSigma2            0      0.00%     48.97% # Class of committed instruction. (Count)
board.processor.cores3.core.commitStats0.committedInstType::SimdShaSigma3            0      0.00%     48.97% # Class of committed instruction. (Count)
board.processor.cores3.core.commitStats0.committedInstType::SimdSha3            0      0.00%     48.97% # Class of committed instruction. (Count)
board.processor.cores3.core.commitStats0.committedInstType::SimdSm4e            0      0.00%     48.97% # Class of committed instruction. (Count)
board.processor.cores3.core.commitStats0.committedInstType::SimdCrc            0      0.00%     48.97% # Class of committed instruction. (Count)
board.processor.cores3.core.commitStats0.committedInstType::SimdPredAlu            0      0.00%     48.97% # Class of committed instruction. (Count)
board.processor.cores3.core.commitStats0.committedInstType::SimdDotProd            0      0.00%     48.97% # Class of committed instruction. (Count)
board.processor.cores3.core.commitStats0.committedInstType::Matrix            0      0.00%     48.97% # Class of committed instruction. (Count)
board.processor.cores3.core.commitStats0.committedInstType::MatrixMov            0      0.00%     48.97% # Class of committed instruction. (Count)
board.processor.cores3.core.commitStats0.committedInstType::MatrixOP            0      0.00%     48.97% # Class of committed instruction. (Count)
board.processor.cores3.core.commitStats0.committedInstType::MemRead       188797     42.98%     91.94% # Class of committed instruction. (Count)
board.processor.cores3.core.commitStats0.committedInstType::MemWrite        35388      8.06%    100.00% # Class of committed instruction. (Count)
board.processor.cores3.core.commitStats0.committedInstType::FloatMemRead            0      0.00%    100.00% # Class of committed instruction. (Count)
board.processor.cores3.core.commitStats0.committedInstType::FloatMemWrite           12      0.00%    100.00% # Class of committed instruction. (Count)
board.processor.cores3.core.commitStats0.committedInstType::InstPrefetch            0      0.00%    100.00% # Class of committed instruction. (Count)
board.processor.cores3.core.commitStats0.committedInstType::SimdUnitStrideLoad            0      0.00%    100.00% # Class of committed instruction. (Count)
board.processor.cores3.core.commitStats0.committedInstType::SimdUnitStrideStore            0      0.00%    100.00% # Class of committed instruction. (Count)
board.processor.cores3.core.commitStats0.committedInstType::SimdUnitStrideMaskLoad            0      0.00%    100.00% # Class of committed instruction. (Count)
board.processor.cores3.core.commitStats0.committedInstType::SimdUnitStrideMaskStore            0      0.00%    100.00% # Class of committed instruction. (Count)
board.processor.cores3.core.commitStats0.committedInstType::SimdStridedLoad            0      0.00%    100.00% # Class of committed instruction. (Count)
board.processor.cores3.core.commitStats0.committedInstType::SimdStridedStore            0      0.00%    100.00% # Class of committed instruction. (Count)
board.processor.cores3.core.commitStats0.committedInstType::SimdIndexedLoad            0      0.00%    100.00% # Class of committed instruction. (Count)
board.processor.cores3.core.commitStats0.committedInstType::SimdIndexedStore            0      0.00%    100.00% # Class of committed instruction. (Count)
board.processor.cores3.core.commitStats0.committedInstType::SimdWholeRegisterLoad            0      0.00%    100.00% # Class of committed instruction. (Count)
board.processor.cores3.core.commitStats0.committedInstType::SimdWholeRegisterStore            0      0.00%    100.00% # Class of committed instruction. (Count)
board.processor.cores3.core.commitStats0.committedInstType::SimdUnitStrideFaultOnlyFirstLoad            0      0.00%    100.00% # Class of committed instruction. (Count)
board.processor.cores3.core.commitStats0.committedInstType::SimdUnitStrideSegmentedLoad            0      0.00%    100.00% # Class of committed instruction. (Count)
board.processor.cores3.core.commitStats0.committedInstType::SimdUnitStrideSegmentedStore            0      0.00%    100.00% # Class of committed instruction. (Count)
board.processor.cores3.core.commitStats0.committedInstType::SimdUnitStrideSegmentedFaultOnlyFirstLoad            0      0.00%    100.00% # Class of committed instruction. (Count)
board.processor.cores3.core.commitStats0.committedInstType::SimdStrideSegmentedLoad            0      0.00%    100.00% # Class of committed instruction. (Count)
board.processor.cores3.core.commitStats0.committedInstType::SimdStrideSegmentedStore            0      0.00%    100.00% # Class of committed instruction. (Count)
board.processor.cores3.core.commitStats0.committedInstType::SimdExt            0      0.00%    100.00% # Class of committed instruction. (Count)
board.processor.cores3.core.commitStats0.committedInstType::SimdFloatExt            0      0.00%    100.00% # Class of committed instruction. (Count)
board.processor.cores3.core.commitStats0.committedInstType::SimdConfig            0      0.00%    100.00% # Class of committed instruction. (Count)
board.processor.cores3.core.commitStats0.committedInstType::SimdBf16Add            0      0.00%    100.00% # Class of committed instruction. (Count)
board.processor.cores3.core.commitStats0.committedInstType::SimdBf16Cmp            0      0.00%    100.00% # Class of committed instruction. (Count)
board.processor.cores3.core.commitStats0.committedInstType::SimdBf16Cvt            0      0.00%    100.00% # Class of committed instruction. (Count)
board.processor.cores3.core.commitStats0.committedInstType::SimdBf16DotProd            0      0.00%    100.00% # Class of committed instruction. (Count)
board.processor.cores3.core.commitStats0.committedInstType::SimdBf16MatMultAcc            0      0.00%    100.00% # Class of committed instruction. (Count)
board.processor.cores3.core.commitStats0.committedInstType::SimdBf16Mult            0      0.00%    100.00% # Class of committed instruction. (Count)
board.processor.cores3.core.commitStats0.committedInstType::SimdBf16MultAcc            0      0.00%    100.00% # Class of committed instruction. (Count)
board.processor.cores3.core.commitStats0.committedInstType::Bf16Cvt            0      0.00%    100.00% # Class of committed instruction. (Count)
board.processor.cores3.core.commitStats0.committedInstType::System            0      0.00%    100.00% # Class of committed instruction. (Count)
board.processor.cores3.core.commitStats0.committedInstType::total       439306                       # Class of committed instruction. (Count)
board.processor.cores3.core.commitStats0.committedControl::IsControl        37677                       # Class of control type instructions committed (Count)
board.processor.cores3.core.commitStats0.committedControl::IsDirectControl        36463                       # Class of control type instructions committed (Count)
board.processor.cores3.core.commitStats0.committedControl::IsIndirectControl         1214                       # Class of control type instructions committed (Count)
board.processor.cores3.core.commitStats0.committedControl::IsCondControl        18849                       # Class of control type instructions committed (Count)
board.processor.cores3.core.commitStats0.committedControl::IsUncondControl        18828                       # Class of control type instructions committed (Count)
board.processor.cores3.core.commitStats0.committedControl::IsCall         1216                       # Class of control type instructions committed (Count)
board.processor.cores3.core.commitStats0.committedControl::IsReturn         1209                       # Class of control type instructions committed (Count)
board.processor.cores3.core.commitStats0.functionCalls         1216                       # Number of function calls committed (Count)
board.processor.cores3.core.commitStats0.numCallsReturns         2425                       # Number of function calls and returns committed (Count)
board.processor.cores3.core.exec_context.thread_0.numMatAluAccesses            0                       # Number of matrix alu accesses (Count)
board.processor.cores3.core.exec_context.thread_0.numMatInsts            0                       # Number of matrix instructions (Count)
board.processor.cores3.core.exec_context.thread_0.numIdleCycles 252084.213464                       # Number of idle cycles (Cycle)
board.processor.cores3.core.exec_context.thread_0.numBusyCycles 6512714.786536                       # Number of busy cycles (Cycle)
board.processor.cores3.core.exec_context.thread_0.notIdleFraction     0.962736                       # Percentage of non-idle cycles (Ratio)
board.processor.cores3.core.exec_context.thread_0.idleFraction     0.037264                       # Percentage of idle cycles (Ratio)
board.processor.cores3.core.executeStats0.numInsts       439299                       # Number of executed instructions (Count)
board.processor.cores3.core.executeStats0.numNop            0                       # Number of nop insts executed (Count)
board.processor.cores3.core.executeStats0.numBranches        37677                       # Number of branches executed (Count)
board.processor.cores3.core.executeStats0.numLoadInsts       188793                       # Number of load instructions executed (Count)
board.processor.cores3.core.executeStats0.numStoreInsts        35404                       # Number of stores executed (Count)
board.processor.cores3.core.executeStats0.instRate     0.064939                       # Inst execution rate ((Count/Cycle))
board.processor.cores3.core.executeStats0.numFpAluAccesses           12                       # Number of float alu accesses (Count)
board.processor.cores3.core.executeStats0.numFpRegReads           12                       # Number of times the floating registers were read (Count)
board.processor.cores3.core.executeStats0.numFpRegWrites            0                       # Number of times the floating registers were written (Count)
board.processor.cores3.core.executeStats0.numIntAluAccesses       422895                       # Number of integer alu accesses (Count)
board.processor.cores3.core.executeStats0.numIntRegReads       540192                       # Number of times the integer registers were read (Count)
board.processor.cores3.core.executeStats0.numIntRegWrites       366247                       # Number of times the integer registers were written (Count)
board.processor.cores3.core.executeStats0.numMemRefs       224197                       # Number of memory refs (Count)
board.processor.cores3.core.executeStats0.numMiscRegReads           30                       # Number of times the Misc registers were read (Count)
board.processor.cores3.core.executeStats0.numVecAluAccesses            0                       # Number of vector alu accesses (Count)
board.processor.cores3.core.executeStats0.numDiscardedOps            0                       # Number of ops (including micro ops) which were discarded before commit (Count)
board.processor.cores3.core.fetchStats0.numInsts       439304                       # Number of instructions fetched (thread level) (Count)
board.processor.cores3.core.fetchStats0.numOps       439311                       # Number of ops (including micro ops) fetched (thread level) (Count)
board.processor.cores3.core.fetchStats0.fetchRate     0.064940                       # Number of inst fetches per cycle ((Count/Cycle))
board.processor.cores3.core.fetchStats0.numBranches        37677                       # Number of branches fetched (Count)
board.processor.cores3.core.fetchStats0.branchRate     0.005570                       # Number of branch fetches per cycle (Ratio)
board.processor.cores3.core.fetchStats0.numFetchSuspends            0                       # Number of times Execute suspended instruction fetching (Count)
board.processor.cores3.core.mmu.dtb.readHits            0                       # read hits (Count)
board.processor.cores3.core.mmu.dtb.readMisses            0                       # read misses (Count)
board.processor.cores3.core.mmu.dtb.readAccesses            0                       # read accesses (Count)
board.processor.cores3.core.mmu.dtb.writeHits            0                       # write hits (Count)
board.processor.cores3.core.mmu.dtb.writeMisses            0                       # write misses (Count)
board.processor.cores3.core.mmu.dtb.writeAccesses            0                       # write accesses (Count)
board.processor.cores3.core.mmu.dtb.hits            0                       # Total TLB (read and write) hits (Count)
board.processor.cores3.core.mmu.dtb.misses            0                       # Total TLB (read and write) misses (Count)
board.processor.cores3.core.mmu.dtb.accesses            0                       # Total TLB (read and write) accesses (Count)
board.processor.cores3.core.mmu.dtb.walker.num_4kb_walks            0                       # Completed page walks with 4KB pages (Count)
board.processor.cores3.core.mmu.dtb.walker.num_64kb_walks            0                       # Completed page walks with 64KB pages (Count)
board.processor.cores3.core.mmu.dtb.walker.num_2mb_walks            0                       # Completed page walks with 2MB pages (Count)
board.processor.cores3.core.mmu.dtb.walker.power_state.pwrStateResidencyTicks::UNDEFINED   2252678400                       # Cumulative time (in ticks) in various power states (Tick)
board.processor.cores3.core.mmu.itb.readHits            0                       # read hits (Count)
board.processor.cores3.core.mmu.itb.readMisses            0                       # read misses (Count)
board.processor.cores3.core.mmu.itb.readAccesses            0                       # read accesses (Count)
board.processor.cores3.core.mmu.itb.writeHits            0                       # write hits (Count)
board.processor.cores3.core.mmu.itb.writeMisses            0                       # write misses (Count)
board.processor.cores3.core.mmu.itb.writeAccesses            0                       # write accesses (Count)
board.processor.cores3.core.mmu.itb.hits            0                       # Total TLB (read and write) hits (Count)
board.processor.cores3.core.mmu.itb.misses            0                       # Total TLB (read and write) misses (Count)
board.processor.cores3.core.mmu.itb.accesses            0                       # Total TLB (read and write) accesses (Count)
board.processor.cores3.core.mmu.itb.walker.num_4kb_walks            0                       # Completed page walks with 4KB pages (Count)
board.processor.cores3.core.mmu.itb.walker.num_64kb_walks            0                       # Completed page walks with 64KB pages (Count)
board.processor.cores3.core.mmu.itb.walker.num_2mb_walks            0                       # Completed page walks with 2MB pages (Count)
board.processor.cores3.core.mmu.itb.walker.power_state.pwrStateResidencyTicks::UNDEFINED   2252678400                       # Cumulative time (in ticks) in various power states (Tick)
board.processor.cores3.core.power_state.pwrStateResidencyTicks::ON   2252678400                       # Cumulative time (in ticks) in various power states (Tick)
board.processor.cores3.core.thread_0.numInsts       439299                       # Number of Instructions committed (Count)
board.processor.cores3.core.thread_0.numOps       439306                       # Number of Ops committed (Count)
board.processor.cores3.core.thread_0.numMemRefs       224197                       # Number of Memory References (Count)
board.workload.inst.arm                             0                       # number of arm instructions executed (Count)
board.workload.inst.quiesce                         0                       # number of quiesce instructions executed (Count)

---------- End Simulation Statistics   ----------
