
---------- Begin Simulation Statistics ----------
simSeconds                                   0.000960                       # Number of seconds simulated (Second)
simTicks                                    959649723                       # Number of ticks simulated (Tick)
finalTick                                  2491386120                       # Number of ticks from beginning of simulation (restored from checkpoints and never reset) (Tick)
simFreq                                  1000000000000                       # The number of ticks per simulated second ((Tick/Second))
hostSeconds                                    111.88                       # Real time elapsed on the host (Second)
hostTickRate                                  8577141                       # The number of ticks simulated per host second (ticks/s) ((Tick/Second))
hostMemory                                    5594268                       # Number of bytes of host memory used (Byte)
simInsts                                     29934359                       # Number of instructions simulated (Count)
simOps                                       29947223                       # Number of ops (including micro ops) simulated (Count)
hostInstRate                                   267546                       # Simulator instruction rate (inst/s) ((Count/Second))
hostOpRate                                     267661                       # Simulator op (including micro ops) rate (op/s) ((Count/Second))
board.cache_hierarchy.clusters0.dptw_cache.blockedCycles::no_mshrs            0                       # number of cycles access was blocked (Cycle)
board.cache_hierarchy.clusters0.dptw_cache.blockedCycles::no_wbuffers            0                       # number of cycles access was blocked (Cycle)
board.cache_hierarchy.clusters0.dptw_cache.blockedCycles::no_targets            0                       # number of cycles access was blocked (Cycle)
board.cache_hierarchy.clusters0.dptw_cache.blockedCauses::no_mshrs            0                       # number of times access was blocked (Count)
board.cache_hierarchy.clusters0.dptw_cache.blockedCauses::no_wbuffers            0                       # number of times access was blocked (Count)
board.cache_hierarchy.clusters0.dptw_cache.blockedCauses::no_targets            0                       # number of times access was blocked (Count)
board.cache_hierarchy.clusters0.dptw_cache.avgBlocked::no_mshrs          nan                       # average number of cycles each access was blocked ((Cycle/Count))
board.cache_hierarchy.clusters0.dptw_cache.avgBlocked::no_wbuffers          nan                       # average number of cycles each access was blocked ((Cycle/Count))
board.cache_hierarchy.clusters0.dptw_cache.avgBlocked::no_targets          nan                       # average number of cycles each access was blocked ((Cycle/Count))
board.cache_hierarchy.clusters0.dptw_cache.replacements            0                       # number of replacements (Count)
board.cache_hierarchy.clusters0.dptw_cache.power_state.pwrStateResidencyTicks::UNDEFINED   2491386120                       # Cumulative time (in ticks) in various power states (Tick)
board.cache_hierarchy.clusters0.dptw_cache.tags.tagsInUse            0                       # Average ticks per tags in use ((Tick/Count))
board.cache_hierarchy.clusters0.dptw_cache.tags.totalRefs            0                       # Total number of references to valid blocks. (Count)
board.cache_hierarchy.clusters0.dptw_cache.tags.sampledRefs            0                       # Sample count of references to valid blocks. (Count)
board.cache_hierarchy.clusters0.dptw_cache.tags.avgRefs          nan                       # Average number of references to valid blocks. ((Count/Count))
board.cache_hierarchy.clusters0.dptw_cache.tags.warmupTick            0                       # The tick when the warmup percentage was hit. (Tick)
board.cache_hierarchy.clusters0.dptw_cache.tags.tagAccesses            0                       # Number of tag accesses (Count)
board.cache_hierarchy.clusters0.dptw_cache.tags.dataAccesses            0                       # Number of data accesses (Count)
board.cache_hierarchy.clusters0.dptw_cache.tags.power_state.pwrStateResidencyTicks::UNDEFINED   2491386120                       # Cumulative time (in ticks) in various power states (Tick)
board.cache_hierarchy.clusters0.iptw_cache.blockedCycles::no_mshrs            0                       # number of cycles access was blocked (Cycle)
board.cache_hierarchy.clusters0.iptw_cache.blockedCycles::no_wbuffers            0                       # number of cycles access was blocked (Cycle)
board.cache_hierarchy.clusters0.iptw_cache.blockedCycles::no_targets            0                       # number of cycles access was blocked (Cycle)
board.cache_hierarchy.clusters0.iptw_cache.blockedCauses::no_mshrs            0                       # number of times access was blocked (Count)
board.cache_hierarchy.clusters0.iptw_cache.blockedCauses::no_wbuffers            0                       # number of times access was blocked (Count)
board.cache_hierarchy.clusters0.iptw_cache.blockedCauses::no_targets            0                       # number of times access was blocked (Count)
board.cache_hierarchy.clusters0.iptw_cache.avgBlocked::no_mshrs          nan                       # average number of cycles each access was blocked ((Cycle/Count))
board.cache_hierarchy.clusters0.iptw_cache.avgBlocked::no_wbuffers          nan                       # average number of cycles each access was blocked ((Cycle/Count))
board.cache_hierarchy.clusters0.iptw_cache.avgBlocked::no_targets          nan                       # average number of cycles each access was blocked ((Cycle/Count))
board.cache_hierarchy.clusters0.iptw_cache.replacements            0                       # number of replacements (Count)
board.cache_hierarchy.clusters0.iptw_cache.power_state.pwrStateResidencyTicks::UNDEFINED   2491386120                       # Cumulative time (in ticks) in various power states (Tick)
board.cache_hierarchy.clusters0.iptw_cache.tags.tagsInUse            0                       # Average ticks per tags in use ((Tick/Count))
board.cache_hierarchy.clusters0.iptw_cache.tags.totalRefs            0                       # Total number of references to valid blocks. (Count)
board.cache_hierarchy.clusters0.iptw_cache.tags.sampledRefs            0                       # Sample count of references to valid blocks. (Count)
board.cache_hierarchy.clusters0.iptw_cache.tags.avgRefs          nan                       # Average number of references to valid blocks. ((Count/Count))
board.cache_hierarchy.clusters0.iptw_cache.tags.warmupTick            0                       # The tick when the warmup percentage was hit. (Tick)
board.cache_hierarchy.clusters0.iptw_cache.tags.tagAccesses            0                       # Number of tag accesses (Count)
board.cache_hierarchy.clusters0.iptw_cache.tags.dataAccesses            0                       # Number of data accesses (Count)
board.cache_hierarchy.clusters0.iptw_cache.tags.power_state.pwrStateResidencyTicks::UNDEFINED   2491386120                       # Cumulative time (in ticks) in various power states (Tick)
board.cache_hierarchy.clusters0.l1d_cache.demandHits::processor.cores00.core.data       792157                       # number of demand (read+write) hits (Count)
board.cache_hierarchy.clusters0.l1d_cache.demandHits::total       792157                       # number of demand (read+write) hits (Count)
board.cache_hierarchy.clusters0.l1d_cache.overallHits::processor.cores00.core.data       792157                       # number of overall hits (Count)
board.cache_hierarchy.clusters0.l1d_cache.overallHits::total       792157                       # number of overall hits (Count)
board.cache_hierarchy.clusters0.l1d_cache.demandMisses::processor.cores00.core.data        35223                       # number of demand (read+write) misses (Count)
board.cache_hierarchy.clusters0.l1d_cache.demandMisses::total        35223                       # number of demand (read+write) misses (Count)
board.cache_hierarchy.clusters0.l1d_cache.overallMisses::processor.cores00.core.data        35223                       # number of overall misses (Count)
board.cache_hierarchy.clusters0.l1d_cache.overallMisses::total        35223                       # number of overall misses (Count)
board.cache_hierarchy.clusters0.l1d_cache.demandMissLatency::processor.cores00.core.data    612771282                       # number of demand (read+write) miss ticks (Tick)
board.cache_hierarchy.clusters0.l1d_cache.demandMissLatency::total    612771282                       # number of demand (read+write) miss ticks (Tick)
board.cache_hierarchy.clusters0.l1d_cache.overallMissLatency::processor.cores00.core.data    612771282                       # number of overall miss ticks (Tick)
board.cache_hierarchy.clusters0.l1d_cache.overallMissLatency::total    612771282                       # number of overall miss ticks (Tick)
board.cache_hierarchy.clusters0.l1d_cache.demandAccesses::processor.cores00.core.data       827380                       # number of demand (read+write) accesses (Count)
board.cache_hierarchy.clusters0.l1d_cache.demandAccesses::total       827380                       # number of demand (read+write) accesses (Count)
board.cache_hierarchy.clusters0.l1d_cache.overallAccesses::processor.cores00.core.data       827380                       # number of overall (read+write) accesses (Count)
board.cache_hierarchy.clusters0.l1d_cache.overallAccesses::total       827380                       # number of overall (read+write) accesses (Count)
board.cache_hierarchy.clusters0.l1d_cache.demandMissRate::processor.cores00.core.data     0.042572                       # miss rate for demand accesses (Ratio)
board.cache_hierarchy.clusters0.l1d_cache.demandMissRate::total     0.042572                       # miss rate for demand accesses (Ratio)
board.cache_hierarchy.clusters0.l1d_cache.overallMissRate::processor.cores00.core.data     0.042572                       # miss rate for overall accesses (Ratio)
board.cache_hierarchy.clusters0.l1d_cache.overallMissRate::total     0.042572                       # miss rate for overall accesses (Ratio)
board.cache_hierarchy.clusters0.l1d_cache.demandAvgMissLatency::processor.cores00.core.data 17396.907759                       # average overall miss latency in ticks ((Tick/Count))
board.cache_hierarchy.clusters0.l1d_cache.demandAvgMissLatency::total 17396.907759                       # average overall miss latency in ticks ((Tick/Count))
board.cache_hierarchy.clusters0.l1d_cache.overallAvgMissLatency::processor.cores00.core.data 17396.907759                       # average overall miss latency ((Tick/Count))
board.cache_hierarchy.clusters0.l1d_cache.overallAvgMissLatency::total 17396.907759                       # average overall miss latency ((Tick/Count))
board.cache_hierarchy.clusters0.l1d_cache.blockedCycles::no_mshrs            0                       # number of cycles access was blocked (Cycle)
board.cache_hierarchy.clusters0.l1d_cache.blockedCycles::no_wbuffers            0                       # number of cycles access was blocked (Cycle)
board.cache_hierarchy.clusters0.l1d_cache.blockedCycles::no_targets            0                       # number of cycles access was blocked (Cycle)
board.cache_hierarchy.clusters0.l1d_cache.blockedCauses::no_mshrs            0                       # number of times access was blocked (Count)
board.cache_hierarchy.clusters0.l1d_cache.blockedCauses::no_wbuffers            0                       # number of times access was blocked (Count)
board.cache_hierarchy.clusters0.l1d_cache.blockedCauses::no_targets            0                       # number of times access was blocked (Count)
board.cache_hierarchy.clusters0.l1d_cache.avgBlocked::no_mshrs          nan                       # average number of cycles each access was blocked ((Cycle/Count))
board.cache_hierarchy.clusters0.l1d_cache.avgBlocked::no_wbuffers          nan                       # average number of cycles each access was blocked ((Cycle/Count))
board.cache_hierarchy.clusters0.l1d_cache.avgBlocked::no_targets          nan                       # average number of cycles each access was blocked ((Cycle/Count))
board.cache_hierarchy.clusters0.l1d_cache.writebacks::writebacks         6816                       # number of writebacks (Count)
board.cache_hierarchy.clusters0.l1d_cache.writebacks::total         6816                       # number of writebacks (Count)
board.cache_hierarchy.clusters0.l1d_cache.demandMshrHits::processor.cores00.core.data        12292                       # number of demand (read+write) MSHR hits (Count)
board.cache_hierarchy.clusters0.l1d_cache.demandMshrHits::total        12292                       # number of demand (read+write) MSHR hits (Count)
board.cache_hierarchy.clusters0.l1d_cache.overallMshrHits::processor.cores00.core.data        12292                       # number of overall MSHR hits (Count)
board.cache_hierarchy.clusters0.l1d_cache.overallMshrHits::total        12292                       # number of overall MSHR hits (Count)
board.cache_hierarchy.clusters0.l1d_cache.demandMshrMisses::processor.cores00.core.data        22931                       # number of demand (read+write) MSHR misses (Count)
board.cache_hierarchy.clusters0.l1d_cache.demandMshrMisses::total        22931                       # number of demand (read+write) MSHR misses (Count)
board.cache_hierarchy.clusters0.l1d_cache.overallMshrMisses::cache_hierarchy.clusters00.l1d_cache.prefetcher         1023                       # number of overall MSHR misses (Count)
board.cache_hierarchy.clusters0.l1d_cache.overallMshrMisses::processor.cores00.core.data        22931                       # number of overall MSHR misses (Count)
board.cache_hierarchy.clusters0.l1d_cache.overallMshrMisses::total        23954                       # number of overall MSHR misses (Count)
board.cache_hierarchy.clusters0.l1d_cache.demandMshrMissLatency::processor.cores00.core.data    451163052                       # number of demand (read+write) MSHR miss ticks (Tick)
board.cache_hierarchy.clusters0.l1d_cache.demandMshrMissLatency::total    451163052                       # number of demand (read+write) MSHR miss ticks (Tick)
board.cache_hierarchy.clusters0.l1d_cache.overallMshrMissLatency::cache_hierarchy.clusters00.l1d_cache.prefetcher      6125837                       # number of overall MSHR miss ticks (Tick)
board.cache_hierarchy.clusters0.l1d_cache.overallMshrMissLatency::processor.cores00.core.data    451163052                       # number of overall MSHR miss ticks (Tick)
board.cache_hierarchy.clusters0.l1d_cache.overallMshrMissLatency::total    457288889                       # number of overall MSHR miss ticks (Tick)
board.cache_hierarchy.clusters0.l1d_cache.demandMshrMissRate::processor.cores00.core.data     0.027715                       # mshr miss ratio for demand accesses (Ratio)
board.cache_hierarchy.clusters0.l1d_cache.demandMshrMissRate::total     0.027715                       # mshr miss ratio for demand accesses (Ratio)
board.cache_hierarchy.clusters0.l1d_cache.overallMshrMissRate::cache_hierarchy.clusters00.l1d_cache.prefetcher          inf                       # mshr miss ratio for overall accesses (Ratio)
board.cache_hierarchy.clusters0.l1d_cache.overallMshrMissRate::processor.cores00.core.data     0.027715                       # mshr miss ratio for overall accesses (Ratio)
board.cache_hierarchy.clusters0.l1d_cache.overallMshrMissRate::total     0.028952                       # mshr miss ratio for overall accesses (Ratio)
board.cache_hierarchy.clusters0.l1d_cache.demandAvgMshrMissLatency::processor.cores00.core.data 19674.809297                       # average overall mshr miss latency ((Tick/Count))
board.cache_hierarchy.clusters0.l1d_cache.demandAvgMshrMissLatency::total 19674.809297                       # average overall mshr miss latency ((Tick/Count))
board.cache_hierarchy.clusters0.l1d_cache.overallAvgMshrMissLatency::cache_hierarchy.clusters00.l1d_cache.prefetcher  5988.110459                       # average overall mshr miss latency ((Tick/Count))
board.cache_hierarchy.clusters0.l1d_cache.overallAvgMshrMissLatency::processor.cores00.core.data 19674.809297                       # average overall mshr miss latency ((Tick/Count))
board.cache_hierarchy.clusters0.l1d_cache.overallAvgMshrMissLatency::total 19090.293437                       # average overall mshr miss latency ((Tick/Count))
board.cache_hierarchy.clusters0.l1d_cache.replacements         6816                       # number of replacements (Count)
board.cache_hierarchy.clusters0.l1d_cache.HardPFReq.mshrMisses::cache_hierarchy.clusters00.l1d_cache.prefetcher         1023                       # number of HardPFReq MSHR misses (Count)
board.cache_hierarchy.clusters0.l1d_cache.HardPFReq.mshrMisses::total         1023                       # number of HardPFReq MSHR misses (Count)
board.cache_hierarchy.clusters0.l1d_cache.HardPFReq.mshrMissLatency::cache_hierarchy.clusters00.l1d_cache.prefetcher      6125837                       # number of HardPFReq MSHR miss ticks (Tick)
board.cache_hierarchy.clusters0.l1d_cache.HardPFReq.mshrMissLatency::total      6125837                       # number of HardPFReq MSHR miss ticks (Tick)
board.cache_hierarchy.clusters0.l1d_cache.HardPFReq.mshrMissRate::cache_hierarchy.clusters00.l1d_cache.prefetcher          inf                       # mshr miss rate for HardPFReq accesses (Ratio)
board.cache_hierarchy.clusters0.l1d_cache.HardPFReq.mshrMissRate::total          inf                       # mshr miss rate for HardPFReq accesses (Ratio)
board.cache_hierarchy.clusters0.l1d_cache.HardPFReq.avgMshrMissLatency::cache_hierarchy.clusters00.l1d_cache.prefetcher  5988.110459                       # average HardPFReq mshr miss latency ((Tick/Count))
board.cache_hierarchy.clusters0.l1d_cache.HardPFReq.avgMshrMissLatency::total  5988.110459                       # average HardPFReq mshr miss latency ((Tick/Count))
board.cache_hierarchy.clusters0.l1d_cache.LoadLockedReq.hits::processor.cores00.core.data          100                       # number of LoadLockedReq hits (Count)
board.cache_hierarchy.clusters0.l1d_cache.LoadLockedReq.hits::total          100                       # number of LoadLockedReq hits (Count)
board.cache_hierarchy.clusters0.l1d_cache.LoadLockedReq.accesses::processor.cores00.core.data          100                       # number of LoadLockedReq accesses(hits+misses) (Count)
board.cache_hierarchy.clusters0.l1d_cache.LoadLockedReq.accesses::total          100                       # number of LoadLockedReq accesses(hits+misses) (Count)
board.cache_hierarchy.clusters0.l1d_cache.ReadReq.hits::processor.cores00.core.data       552240                       # number of ReadReq hits (Count)
board.cache_hierarchy.clusters0.l1d_cache.ReadReq.hits::total       552240                       # number of ReadReq hits (Count)
board.cache_hierarchy.clusters0.l1d_cache.ReadReq.misses::processor.cores00.core.data         8755                       # number of ReadReq misses (Count)
board.cache_hierarchy.clusters0.l1d_cache.ReadReq.misses::total         8755                       # number of ReadReq misses (Count)
board.cache_hierarchy.clusters0.l1d_cache.ReadReq.missLatency::processor.cores00.core.data    223664445                       # number of ReadReq miss ticks (Tick)
board.cache_hierarchy.clusters0.l1d_cache.ReadReq.missLatency::total    223664445                       # number of ReadReq miss ticks (Tick)
board.cache_hierarchy.clusters0.l1d_cache.ReadReq.accesses::processor.cores00.core.data       560995                       # number of ReadReq accesses(hits+misses) (Count)
board.cache_hierarchy.clusters0.l1d_cache.ReadReq.accesses::total       560995                       # number of ReadReq accesses(hits+misses) (Count)
board.cache_hierarchy.clusters0.l1d_cache.ReadReq.missRate::processor.cores00.core.data     0.015606                       # miss rate for ReadReq accesses (Ratio)
board.cache_hierarchy.clusters0.l1d_cache.ReadReq.missRate::total     0.015606                       # miss rate for ReadReq accesses (Ratio)
board.cache_hierarchy.clusters0.l1d_cache.ReadReq.avgMissLatency::processor.cores00.core.data 25547.052541                       # average ReadReq miss latency ((Tick/Count))
board.cache_hierarchy.clusters0.l1d_cache.ReadReq.avgMissLatency::total 25547.052541                       # average ReadReq miss latency ((Tick/Count))
board.cache_hierarchy.clusters0.l1d_cache.ReadReq.mshrHits::processor.cores00.core.data          200                       # number of ReadReq MSHR hits (Count)
board.cache_hierarchy.clusters0.l1d_cache.ReadReq.mshrHits::total          200                       # number of ReadReq MSHR hits (Count)
board.cache_hierarchy.clusters0.l1d_cache.ReadReq.mshrMisses::processor.cores00.core.data         8555                       # number of ReadReq MSHR misses (Count)
board.cache_hierarchy.clusters0.l1d_cache.ReadReq.mshrMisses::total         8555                       # number of ReadReq MSHR misses (Count)
board.cache_hierarchy.clusters0.l1d_cache.ReadReq.mshrMissLatency::processor.cores00.core.data    218917530                       # number of ReadReq MSHR miss ticks (Tick)
board.cache_hierarchy.clusters0.l1d_cache.ReadReq.mshrMissLatency::total    218917530                       # number of ReadReq MSHR miss ticks (Tick)
board.cache_hierarchy.clusters0.l1d_cache.ReadReq.mshrMissRate::processor.cores00.core.data     0.015250                       # mshr miss rate for ReadReq accesses (Ratio)
board.cache_hierarchy.clusters0.l1d_cache.ReadReq.mshrMissRate::total     0.015250                       # mshr miss rate for ReadReq accesses (Ratio)
board.cache_hierarchy.clusters0.l1d_cache.ReadReq.avgMshrMissLatency::processor.cores00.core.data 25589.424898                       # average ReadReq mshr miss latency ((Tick/Count))
board.cache_hierarchy.clusters0.l1d_cache.ReadReq.avgMshrMissLatency::total 25589.424898                       # average ReadReq mshr miss latency ((Tick/Count))
board.cache_hierarchy.clusters0.l1d_cache.StoreCondReq.hits::processor.cores00.core.data           12                       # number of StoreCondReq hits (Count)
board.cache_hierarchy.clusters0.l1d_cache.StoreCondReq.hits::total           12                       # number of StoreCondReq hits (Count)
board.cache_hierarchy.clusters0.l1d_cache.StoreCondReq.misses::processor.cores00.core.data           88                       # number of StoreCondReq misses (Count)
board.cache_hierarchy.clusters0.l1d_cache.StoreCondReq.misses::total           88                       # number of StoreCondReq misses (Count)
board.cache_hierarchy.clusters0.l1d_cache.StoreCondReq.missLatency::processor.cores00.core.data      1682649                       # number of StoreCondReq miss ticks (Tick)
board.cache_hierarchy.clusters0.l1d_cache.StoreCondReq.missLatency::total      1682649                       # number of StoreCondReq miss ticks (Tick)
board.cache_hierarchy.clusters0.l1d_cache.StoreCondReq.accesses::processor.cores00.core.data          100                       # number of StoreCondReq accesses(hits+misses) (Count)
board.cache_hierarchy.clusters0.l1d_cache.StoreCondReq.accesses::total          100                       # number of StoreCondReq accesses(hits+misses) (Count)
board.cache_hierarchy.clusters0.l1d_cache.StoreCondReq.missRate::processor.cores00.core.data     0.880000                       # miss rate for StoreCondReq accesses (Ratio)
board.cache_hierarchy.clusters0.l1d_cache.StoreCondReq.missRate::total     0.880000                       # miss rate for StoreCondReq accesses (Ratio)
board.cache_hierarchy.clusters0.l1d_cache.StoreCondReq.avgMissLatency::processor.cores00.core.data 19121.011364                       # average StoreCondReq miss latency ((Tick/Count))
board.cache_hierarchy.clusters0.l1d_cache.StoreCondReq.avgMissLatency::total 19121.011364                       # average StoreCondReq miss latency ((Tick/Count))
board.cache_hierarchy.clusters0.l1d_cache.StoreCondReq.mshrMisses::processor.cores00.core.data           88                       # number of StoreCondReq MSHR misses (Count)
board.cache_hierarchy.clusters0.l1d_cache.StoreCondReq.mshrMisses::total           88                       # number of StoreCondReq MSHR misses (Count)
board.cache_hierarchy.clusters0.l1d_cache.StoreCondReq.mshrMissLatency::processor.cores00.core.data      1653345                       # number of StoreCondReq MSHR miss ticks (Tick)
board.cache_hierarchy.clusters0.l1d_cache.StoreCondReq.mshrMissLatency::total      1653345                       # number of StoreCondReq MSHR miss ticks (Tick)
board.cache_hierarchy.clusters0.l1d_cache.StoreCondReq.mshrMissRate::processor.cores00.core.data     0.880000                       # mshr miss rate for StoreCondReq accesses (Ratio)
board.cache_hierarchy.clusters0.l1d_cache.StoreCondReq.mshrMissRate::total     0.880000                       # mshr miss rate for StoreCondReq accesses (Ratio)
board.cache_hierarchy.clusters0.l1d_cache.StoreCondReq.avgMshrMissLatency::processor.cores00.core.data 18788.011364                       # average StoreCondReq mshr miss latency ((Tick/Count))
board.cache_hierarchy.clusters0.l1d_cache.StoreCondReq.avgMshrMissLatency::total 18788.011364                       # average StoreCondReq mshr miss latency ((Tick/Count))
board.cache_hierarchy.clusters0.l1d_cache.SwapReq.hits::processor.cores00.core.data           23                       # number of SwapReq hits (Count)
board.cache_hierarchy.clusters0.l1d_cache.SwapReq.hits::total           23                       # number of SwapReq hits (Count)
board.cache_hierarchy.clusters0.l1d_cache.SwapReq.misses::processor.cores00.core.data          379                       # number of SwapReq misses (Count)
board.cache_hierarchy.clusters0.l1d_cache.SwapReq.misses::total          379                       # number of SwapReq misses (Count)
board.cache_hierarchy.clusters0.l1d_cache.SwapReq.missLatency::processor.cores00.core.data      3744585                       # number of SwapReq miss ticks (Tick)
board.cache_hierarchy.clusters0.l1d_cache.SwapReq.missLatency::total      3744585                       # number of SwapReq miss ticks (Tick)
board.cache_hierarchy.clusters0.l1d_cache.SwapReq.accesses::processor.cores00.core.data          402                       # number of SwapReq accesses(hits+misses) (Count)
board.cache_hierarchy.clusters0.l1d_cache.SwapReq.accesses::total          402                       # number of SwapReq accesses(hits+misses) (Count)
board.cache_hierarchy.clusters0.l1d_cache.SwapReq.missRate::processor.cores00.core.data     0.942786                       # miss rate for SwapReq accesses (Ratio)
board.cache_hierarchy.clusters0.l1d_cache.SwapReq.missRate::total     0.942786                       # miss rate for SwapReq accesses (Ratio)
board.cache_hierarchy.clusters0.l1d_cache.SwapReq.avgMissLatency::processor.cores00.core.data  9880.171504                       # average SwapReq miss latency ((Tick/Count))
board.cache_hierarchy.clusters0.l1d_cache.SwapReq.avgMissLatency::total  9880.171504                       # average SwapReq miss latency ((Tick/Count))
board.cache_hierarchy.clusters0.l1d_cache.SwapReq.mshrMisses::processor.cores00.core.data          379                       # number of SwapReq MSHR misses (Count)
board.cache_hierarchy.clusters0.l1d_cache.SwapReq.mshrMisses::total          379                       # number of SwapReq MSHR misses (Count)
board.cache_hierarchy.clusters0.l1d_cache.SwapReq.mshrMissLatency::processor.cores00.core.data      3618378                       # number of SwapReq MSHR miss ticks (Tick)
board.cache_hierarchy.clusters0.l1d_cache.SwapReq.mshrMissLatency::total      3618378                       # number of SwapReq MSHR miss ticks (Tick)
board.cache_hierarchy.clusters0.l1d_cache.SwapReq.mshrMissRate::processor.cores00.core.data     0.942786                       # mshr miss rate for SwapReq accesses (Ratio)
board.cache_hierarchy.clusters0.l1d_cache.SwapReq.mshrMissRate::total     0.942786                       # mshr miss rate for SwapReq accesses (Ratio)
board.cache_hierarchy.clusters0.l1d_cache.SwapReq.avgMshrMissLatency::processor.cores00.core.data  9547.171504                       # average SwapReq mshr miss latency ((Tick/Count))
board.cache_hierarchy.clusters0.l1d_cache.SwapReq.avgMshrMissLatency::total  9547.171504                       # average SwapReq mshr miss latency ((Tick/Count))
board.cache_hierarchy.clusters0.l1d_cache.WriteReq.hits::processor.cores00.core.data       239917                       # number of WriteReq hits (Count)
board.cache_hierarchy.clusters0.l1d_cache.WriteReq.hits::total       239917                       # number of WriteReq hits (Count)
board.cache_hierarchy.clusters0.l1d_cache.WriteReq.misses::processor.cores00.core.data        26468                       # number of WriteReq misses (Count)
board.cache_hierarchy.clusters0.l1d_cache.WriteReq.misses::total        26468                       # number of WriteReq misses (Count)
board.cache_hierarchy.clusters0.l1d_cache.WriteReq.missLatency::processor.cores00.core.data    389106837                       # number of WriteReq miss ticks (Tick)
board.cache_hierarchy.clusters0.l1d_cache.WriteReq.missLatency::total    389106837                       # number of WriteReq miss ticks (Tick)
board.cache_hierarchy.clusters0.l1d_cache.WriteReq.accesses::processor.cores00.core.data       266385                       # number of WriteReq accesses(hits+misses) (Count)
board.cache_hierarchy.clusters0.l1d_cache.WriteReq.accesses::total       266385                       # number of WriteReq accesses(hits+misses) (Count)
board.cache_hierarchy.clusters0.l1d_cache.WriteReq.missRate::processor.cores00.core.data     0.099360                       # miss rate for WriteReq accesses (Ratio)
board.cache_hierarchy.clusters0.l1d_cache.WriteReq.missRate::total     0.099360                       # miss rate for WriteReq accesses (Ratio)
board.cache_hierarchy.clusters0.l1d_cache.WriteReq.avgMissLatency::processor.cores00.core.data 14701.029054                       # average WriteReq miss latency ((Tick/Count))
board.cache_hierarchy.clusters0.l1d_cache.WriteReq.avgMissLatency::total 14701.029054                       # average WriteReq miss latency ((Tick/Count))
board.cache_hierarchy.clusters0.l1d_cache.WriteReq.mshrHits::processor.cores00.core.data        12092                       # number of WriteReq MSHR hits (Count)
board.cache_hierarchy.clusters0.l1d_cache.WriteReq.mshrHits::total        12092                       # number of WriteReq MSHR hits (Count)
board.cache_hierarchy.clusters0.l1d_cache.WriteReq.mshrMisses::processor.cores00.core.data        14376                       # number of WriteReq MSHR misses (Count)
board.cache_hierarchy.clusters0.l1d_cache.WriteReq.mshrMisses::total        14376                       # number of WriteReq MSHR misses (Count)
board.cache_hierarchy.clusters0.l1d_cache.WriteReq.mshrMissLatency::processor.cores00.core.data    232245522                       # number of WriteReq MSHR miss ticks (Tick)
board.cache_hierarchy.clusters0.l1d_cache.WriteReq.mshrMissLatency::total    232245522                       # number of WriteReq MSHR miss ticks (Tick)
board.cache_hierarchy.clusters0.l1d_cache.WriteReq.mshrMissRate::processor.cores00.core.data     0.053967                       # mshr miss rate for WriteReq accesses (Ratio)
board.cache_hierarchy.clusters0.l1d_cache.WriteReq.mshrMissRate::total     0.053967                       # mshr miss rate for WriteReq accesses (Ratio)
board.cache_hierarchy.clusters0.l1d_cache.WriteReq.avgMshrMissLatency::processor.cores00.core.data 16155.086394                       # average WriteReq mshr miss latency ((Tick/Count))
board.cache_hierarchy.clusters0.l1d_cache.WriteReq.avgMshrMissLatency::total 16155.086394                       # average WriteReq mshr miss latency ((Tick/Count))
board.cache_hierarchy.clusters0.l1d_cache.power_state.pwrStateResidencyTicks::UNDEFINED   2491386120                       # Cumulative time (in ticks) in various power states (Tick)
board.cache_hierarchy.clusters0.l1d_cache.prefetcher.demandMshrMisses        22931                       # demands not covered by prefetchs (Count)
board.cache_hierarchy.clusters0.l1d_cache.prefetcher.pfIssued        20934                       # number of hwpf issued (Count)
board.cache_hierarchy.clusters0.l1d_cache.prefetcher.pfUnused          172                       # number of HardPF blocks evicted w/o reference (Count)
board.cache_hierarchy.clusters0.l1d_cache.prefetcher.pfUseful          832                       # number of useful prefetch (Count)
board.cache_hierarchy.clusters0.l1d_cache.prefetcher.pfUsefulButMiss           45                       # number of hit on prefetch but cache block is not in an usable state (Count)
board.cache_hierarchy.clusters0.l1d_cache.prefetcher.accuracy     0.039744                       # accuracy of the prefetcher (Count)
board.cache_hierarchy.clusters0.l1d_cache.prefetcher.coverage     0.035012                       # coverage brought by this prefetcher (Count)
board.cache_hierarchy.clusters0.l1d_cache.prefetcher.pfHitInCache        19686                       # number of prefetches hitting in cache (Count)
board.cache_hierarchy.clusters0.l1d_cache.prefetcher.pfHitInMSHR          225                       # number of prefetches hitting in a MSHR (Count)
board.cache_hierarchy.clusters0.l1d_cache.prefetcher.pfHitInWB            0                       # number of prefetches hit in the Write Buffer (Count)
board.cache_hierarchy.clusters0.l1d_cache.prefetcher.pfLate        19911                       # number of late prefetches (hitting in cache, MSHR or WB) (Count)
board.cache_hierarchy.clusters0.l1d_cache.prefetcher.pfIdentified        20939                       # number of prefetch candidates identified (Count)
board.cache_hierarchy.clusters0.l1d_cache.prefetcher.pfBufferHit            5                       # number of redundant prefetches already in prefetch queue (Count)
board.cache_hierarchy.clusters0.l1d_cache.prefetcher.pfInCache            0                       # number of redundant prefetches already in cache/mshr dropped (Count)
board.cache_hierarchy.clusters0.l1d_cache.prefetcher.pfRemovedDemand            0                       # number of prefetches dropped due to a demand for the same address (Count)
board.cache_hierarchy.clusters0.l1d_cache.prefetcher.pfRemovedFull            0                       # number of prefetches dropped due to prefetch queue size (Count)
board.cache_hierarchy.clusters0.l1d_cache.prefetcher.pfSpanPage        50149                       # number of prefetches that crossed the page (Count)
board.cache_hierarchy.clusters0.l1d_cache.prefetcher.pfUsefulSpanPage          138                       # number of prefetches that is useful and crossed the page (Count)
board.cache_hierarchy.clusters0.l1d_cache.prefetcher.power_state.pwrStateResidencyTicks::UNDEFINED   2491386120                       # Cumulative time (in ticks) in various power states (Tick)
board.cache_hierarchy.clusters0.l1d_cache.tags.tagsInUse   506.624922                       # Average ticks per tags in use ((Tick/Count))
board.cache_hierarchy.clusters0.l1d_cache.tags.totalRefs      1233563                       # Total number of references to valid blocks. (Count)
board.cache_hierarchy.clusters0.l1d_cache.tags.sampledRefs        19629                       # Sample count of references to valid blocks. (Count)
board.cache_hierarchy.clusters0.l1d_cache.tags.avgRefs    62.843904                       # Average number of references to valid blocks. ((Count/Count))
board.cache_hierarchy.clusters0.l1d_cache.tags.warmupTick            0                       # The tick when the warmup percentage was hit. (Tick)
board.cache_hierarchy.clusters0.l1d_cache.tags.occupancies::cache_hierarchy.clusters00.l1d_cache.prefetcher   327.782813                       # Average occupied blocks per tick, per requestor ((Count/Tick))
board.cache_hierarchy.clusters0.l1d_cache.tags.occupancies::processor.cores00.core.data   178.842109                       # Average occupied blocks per tick, per requestor ((Count/Tick))
board.cache_hierarchy.clusters0.l1d_cache.tags.avgOccs::cache_hierarchy.clusters00.l1d_cache.prefetcher     0.640201                       # Average percentage of cache occupancy ((Ratio/Tick))
board.cache_hierarchy.clusters0.l1d_cache.tags.avgOccs::processor.cores00.core.data     0.349301                       # Average percentage of cache occupancy ((Ratio/Tick))
board.cache_hierarchy.clusters0.l1d_cache.tags.avgOccs::total     0.989502                       # Average percentage of cache occupancy ((Ratio/Tick))
board.cache_hierarchy.clusters0.l1d_cache.tags.occupanciesTaskId::1022          380                       # Occupied blocks per task id (Count)
board.cache_hierarchy.clusters0.l1d_cache.tags.occupanciesTaskId::1024          124                       # Occupied blocks per task id (Count)
board.cache_hierarchy.clusters0.l1d_cache.tags.ageTaskId_1022::0           15                       # Occupied blocks per task id, per block age (Count)
board.cache_hierarchy.clusters0.l1d_cache.tags.ageTaskId_1022::1          183                       # Occupied blocks per task id, per block age (Count)
board.cache_hierarchy.clusters0.l1d_cache.tags.ageTaskId_1022::2          174                       # Occupied blocks per task id, per block age (Count)
board.cache_hierarchy.clusters0.l1d_cache.tags.ageTaskId_1022::3            8                       # Occupied blocks per task id, per block age (Count)
board.cache_hierarchy.clusters0.l1d_cache.tags.ageTaskId_1024::0           12                       # Occupied blocks per task id, per block age (Count)
board.cache_hierarchy.clusters0.l1d_cache.tags.ageTaskId_1024::1           33                       # Occupied blocks per task id, per block age (Count)
board.cache_hierarchy.clusters0.l1d_cache.tags.ageTaskId_1024::2           79                       # Occupied blocks per task id, per block age (Count)
board.cache_hierarchy.clusters0.l1d_cache.tags.ratioOccsTaskId::1022     0.742188                       # Ratio of occupied blocks and all blocks, per task id (Ratio)
board.cache_hierarchy.clusters0.l1d_cache.tags.ratioOccsTaskId::1024     0.242188                       # Ratio of occupied blocks and all blocks, per task id (Ratio)
board.cache_hierarchy.clusters0.l1d_cache.tags.tagAccesses      6643478                       # Number of tag accesses (Count)
board.cache_hierarchy.clusters0.l1d_cache.tags.dataAccesses      6643478                       # Number of data accesses (Count)
board.cache_hierarchy.clusters0.l1d_cache.tags.power_state.pwrStateResidencyTicks::UNDEFINED   2491386120                       # Cumulative time (in ticks) in various power states (Tick)
board.cache_hierarchy.clusters0.l1i_cache.demandHits::processor.cores00.core.inst       403004                       # number of demand (read+write) hits (Count)
board.cache_hierarchy.clusters0.l1i_cache.demandHits::total       403004                       # number of demand (read+write) hits (Count)
board.cache_hierarchy.clusters0.l1i_cache.overallHits::processor.cores00.core.inst       403004                       # number of overall hits (Count)
board.cache_hierarchy.clusters0.l1i_cache.overallHits::total       403004                       # number of overall hits (Count)
board.cache_hierarchy.clusters0.l1i_cache.demandMisses::processor.cores00.core.inst           52                       # number of demand (read+write) misses (Count)
board.cache_hierarchy.clusters0.l1i_cache.demandMisses::total           52                       # number of demand (read+write) misses (Count)
board.cache_hierarchy.clusters0.l1i_cache.overallMisses::processor.cores00.core.inst           52                       # number of overall misses (Count)
board.cache_hierarchy.clusters0.l1i_cache.overallMisses::total           52                       # number of overall misses (Count)
board.cache_hierarchy.clusters0.l1i_cache.demandMissLatency::processor.cores00.core.inst      1553778                       # number of demand (read+write) miss ticks (Tick)
board.cache_hierarchy.clusters0.l1i_cache.demandMissLatency::total      1553778                       # number of demand (read+write) miss ticks (Tick)
board.cache_hierarchy.clusters0.l1i_cache.overallMissLatency::processor.cores00.core.inst      1553778                       # number of overall miss ticks (Tick)
board.cache_hierarchy.clusters0.l1i_cache.overallMissLatency::total      1553778                       # number of overall miss ticks (Tick)
board.cache_hierarchy.clusters0.l1i_cache.demandAccesses::processor.cores00.core.inst       403056                       # number of demand (read+write) accesses (Count)
board.cache_hierarchy.clusters0.l1i_cache.demandAccesses::total       403056                       # number of demand (read+write) accesses (Count)
board.cache_hierarchy.clusters0.l1i_cache.overallAccesses::processor.cores00.core.inst       403056                       # number of overall (read+write) accesses (Count)
board.cache_hierarchy.clusters0.l1i_cache.overallAccesses::total       403056                       # number of overall (read+write) accesses (Count)
board.cache_hierarchy.clusters0.l1i_cache.demandMissRate::processor.cores00.core.inst     0.000129                       # miss rate for demand accesses (Ratio)
board.cache_hierarchy.clusters0.l1i_cache.demandMissRate::total     0.000129                       # miss rate for demand accesses (Ratio)
board.cache_hierarchy.clusters0.l1i_cache.overallMissRate::processor.cores00.core.inst     0.000129                       # miss rate for overall accesses (Ratio)
board.cache_hierarchy.clusters0.l1i_cache.overallMissRate::total     0.000129                       # miss rate for overall accesses (Ratio)
board.cache_hierarchy.clusters0.l1i_cache.demandAvgMissLatency::processor.cores00.core.inst 29880.346154                       # average overall miss latency in ticks ((Tick/Count))
board.cache_hierarchy.clusters0.l1i_cache.demandAvgMissLatency::total 29880.346154                       # average overall miss latency in ticks ((Tick/Count))
board.cache_hierarchy.clusters0.l1i_cache.overallAvgMissLatency::processor.cores00.core.inst 29880.346154                       # average overall miss latency ((Tick/Count))
board.cache_hierarchy.clusters0.l1i_cache.overallAvgMissLatency::total 29880.346154                       # average overall miss latency ((Tick/Count))
board.cache_hierarchy.clusters0.l1i_cache.blockedCycles::no_mshrs            0                       # number of cycles access was blocked (Cycle)
board.cache_hierarchy.clusters0.l1i_cache.blockedCycles::no_wbuffers            0                       # number of cycles access was blocked (Cycle)
board.cache_hierarchy.clusters0.l1i_cache.blockedCycles::no_targets            0                       # number of cycles access was blocked (Cycle)
board.cache_hierarchy.clusters0.l1i_cache.blockedCauses::no_mshrs            0                       # number of times access was blocked (Count)
board.cache_hierarchy.clusters0.l1i_cache.blockedCauses::no_wbuffers            0                       # number of times access was blocked (Count)
board.cache_hierarchy.clusters0.l1i_cache.blockedCauses::no_targets            0                       # number of times access was blocked (Count)
board.cache_hierarchy.clusters0.l1i_cache.avgBlocked::no_mshrs          nan                       # average number of cycles each access was blocked ((Cycle/Count))
board.cache_hierarchy.clusters0.l1i_cache.avgBlocked::no_wbuffers          nan                       # average number of cycles each access was blocked ((Cycle/Count))
board.cache_hierarchy.clusters0.l1i_cache.avgBlocked::no_targets          nan                       # average number of cycles each access was blocked ((Cycle/Count))
board.cache_hierarchy.clusters0.l1i_cache.writebacks::writebacks           53                       # number of writebacks (Count)
board.cache_hierarchy.clusters0.l1i_cache.writebacks::total           53                       # number of writebacks (Count)
board.cache_hierarchy.clusters0.l1i_cache.demandMshrMisses::processor.cores00.core.inst           52                       # number of demand (read+write) MSHR misses (Count)
board.cache_hierarchy.clusters0.l1i_cache.demandMshrMisses::total           52                       # number of demand (read+write) MSHR misses (Count)
board.cache_hierarchy.clusters0.l1i_cache.overallMshrMisses::processor.cores00.core.inst           52                       # number of overall MSHR misses (Count)
board.cache_hierarchy.clusters0.l1i_cache.overallMshrMisses::total           52                       # number of overall MSHR misses (Count)
board.cache_hierarchy.clusters0.l1i_cache.demandMshrMissLatency::processor.cores00.core.inst      1536129                       # number of demand (read+write) MSHR miss ticks (Tick)
board.cache_hierarchy.clusters0.l1i_cache.demandMshrMissLatency::total      1536129                       # number of demand (read+write) MSHR miss ticks (Tick)
board.cache_hierarchy.clusters0.l1i_cache.overallMshrMissLatency::processor.cores00.core.inst      1536129                       # number of overall MSHR miss ticks (Tick)
board.cache_hierarchy.clusters0.l1i_cache.overallMshrMissLatency::total      1536129                       # number of overall MSHR miss ticks (Tick)
board.cache_hierarchy.clusters0.l1i_cache.demandMshrMissRate::processor.cores00.core.inst     0.000129                       # mshr miss ratio for demand accesses (Ratio)
board.cache_hierarchy.clusters0.l1i_cache.demandMshrMissRate::total     0.000129                       # mshr miss ratio for demand accesses (Ratio)
board.cache_hierarchy.clusters0.l1i_cache.overallMshrMissRate::processor.cores00.core.inst     0.000129                       # mshr miss ratio for overall accesses (Ratio)
board.cache_hierarchy.clusters0.l1i_cache.overallMshrMissRate::total     0.000129                       # mshr miss ratio for overall accesses (Ratio)
board.cache_hierarchy.clusters0.l1i_cache.demandAvgMshrMissLatency::processor.cores00.core.inst 29540.942308                       # average overall mshr miss latency ((Tick/Count))
board.cache_hierarchy.clusters0.l1i_cache.demandAvgMshrMissLatency::total 29540.942308                       # average overall mshr miss latency ((Tick/Count))
board.cache_hierarchy.clusters0.l1i_cache.overallAvgMshrMissLatency::processor.cores00.core.inst 29540.942308                       # average overall mshr miss latency ((Tick/Count))
board.cache_hierarchy.clusters0.l1i_cache.overallAvgMshrMissLatency::total 29540.942308                       # average overall mshr miss latency ((Tick/Count))
board.cache_hierarchy.clusters0.l1i_cache.replacements           53                       # number of replacements (Count)
board.cache_hierarchy.clusters0.l1i_cache.ReadReq.hits::processor.cores00.core.inst       403004                       # number of ReadReq hits (Count)
board.cache_hierarchy.clusters0.l1i_cache.ReadReq.hits::total       403004                       # number of ReadReq hits (Count)
board.cache_hierarchy.clusters0.l1i_cache.ReadReq.misses::processor.cores00.core.inst           52                       # number of ReadReq misses (Count)
board.cache_hierarchy.clusters0.l1i_cache.ReadReq.misses::total           52                       # number of ReadReq misses (Count)
board.cache_hierarchy.clusters0.l1i_cache.ReadReq.missLatency::processor.cores00.core.inst      1553778                       # number of ReadReq miss ticks (Tick)
board.cache_hierarchy.clusters0.l1i_cache.ReadReq.missLatency::total      1553778                       # number of ReadReq miss ticks (Tick)
board.cache_hierarchy.clusters0.l1i_cache.ReadReq.accesses::processor.cores00.core.inst       403056                       # number of ReadReq accesses(hits+misses) (Count)
board.cache_hierarchy.clusters0.l1i_cache.ReadReq.accesses::total       403056                       # number of ReadReq accesses(hits+misses) (Count)
board.cache_hierarchy.clusters0.l1i_cache.ReadReq.missRate::processor.cores00.core.inst     0.000129                       # miss rate for ReadReq accesses (Ratio)
board.cache_hierarchy.clusters0.l1i_cache.ReadReq.missRate::total     0.000129                       # miss rate for ReadReq accesses (Ratio)
board.cache_hierarchy.clusters0.l1i_cache.ReadReq.avgMissLatency::processor.cores00.core.inst 29880.346154                       # average ReadReq miss latency ((Tick/Count))
board.cache_hierarchy.clusters0.l1i_cache.ReadReq.avgMissLatency::total 29880.346154                       # average ReadReq miss latency ((Tick/Count))
board.cache_hierarchy.clusters0.l1i_cache.ReadReq.mshrMisses::processor.cores00.core.inst           52                       # number of ReadReq MSHR misses (Count)
board.cache_hierarchy.clusters0.l1i_cache.ReadReq.mshrMisses::total           52                       # number of ReadReq MSHR misses (Count)
board.cache_hierarchy.clusters0.l1i_cache.ReadReq.mshrMissLatency::processor.cores00.core.inst      1536129                       # number of ReadReq MSHR miss ticks (Tick)
board.cache_hierarchy.clusters0.l1i_cache.ReadReq.mshrMissLatency::total      1536129                       # number of ReadReq MSHR miss ticks (Tick)
board.cache_hierarchy.clusters0.l1i_cache.ReadReq.mshrMissRate::processor.cores00.core.inst     0.000129                       # mshr miss rate for ReadReq accesses (Ratio)
board.cache_hierarchy.clusters0.l1i_cache.ReadReq.mshrMissRate::total     0.000129                       # mshr miss rate for ReadReq accesses (Ratio)
board.cache_hierarchy.clusters0.l1i_cache.ReadReq.avgMshrMissLatency::processor.cores00.core.inst 29540.942308                       # average ReadReq mshr miss latency ((Tick/Count))
board.cache_hierarchy.clusters0.l1i_cache.ReadReq.avgMshrMissLatency::total 29540.942308                       # average ReadReq mshr miss latency ((Tick/Count))
board.cache_hierarchy.clusters0.l1i_cache.power_state.pwrStateResidencyTicks::UNDEFINED   2491386120                       # Cumulative time (in ticks) in various power states (Tick)
board.cache_hierarchy.clusters0.l1i_cache.prefetcher.demandMshrMisses           52                       # demands not covered by prefetchs (Count)
board.cache_hierarchy.clusters0.l1i_cache.prefetcher.pfIssued            0                       # number of hwpf issued (Count)
board.cache_hierarchy.clusters0.l1i_cache.prefetcher.pfUseful            0                       # number of useful prefetch (Count)
board.cache_hierarchy.clusters0.l1i_cache.prefetcher.pfUsefulButMiss            0                       # number of hit on prefetch but cache block is not in an usable state (Count)
board.cache_hierarchy.clusters0.l1i_cache.prefetcher.accuracy          nan                       # accuracy of the prefetcher (Count)
board.cache_hierarchy.clusters0.l1i_cache.prefetcher.coverage            0                       # coverage brought by this prefetcher (Count)
board.cache_hierarchy.clusters0.l1i_cache.prefetcher.pfHitInCache            0                       # number of prefetches hitting in cache (Count)
board.cache_hierarchy.clusters0.l1i_cache.prefetcher.pfHitInMSHR            0                       # number of prefetches hitting in a MSHR (Count)
board.cache_hierarchy.clusters0.l1i_cache.prefetcher.pfHitInWB            0                       # number of prefetches hit in the Write Buffer (Count)
board.cache_hierarchy.clusters0.l1i_cache.prefetcher.pfLate            0                       # number of late prefetches (hitting in cache, MSHR or WB) (Count)
board.cache_hierarchy.clusters0.l1i_cache.prefetcher.pfIdentified            0                       # number of prefetch candidates identified (Count)
board.cache_hierarchy.clusters0.l1i_cache.prefetcher.pfBufferHit            0                       # number of redundant prefetches already in prefetch queue (Count)
board.cache_hierarchy.clusters0.l1i_cache.prefetcher.pfInCache            0                       # number of redundant prefetches already in cache/mshr dropped (Count)
board.cache_hierarchy.clusters0.l1i_cache.prefetcher.pfRemovedDemand            0                       # number of prefetches dropped due to a demand for the same address (Count)
board.cache_hierarchy.clusters0.l1i_cache.prefetcher.pfRemovedFull            0                       # number of prefetches dropped due to prefetch queue size (Count)
board.cache_hierarchy.clusters0.l1i_cache.prefetcher.pfSpanPage            0                       # number of prefetches that crossed the page (Count)
board.cache_hierarchy.clusters0.l1i_cache.prefetcher.pfUsefulSpanPage            0                       # number of prefetches that is useful and crossed the page (Count)
board.cache_hierarchy.clusters0.l1i_cache.prefetcher.power_state.pwrStateResidencyTicks::UNDEFINED   2491386120                       # Cumulative time (in ticks) in various power states (Tick)
board.cache_hierarchy.clusters0.l1i_cache.tags.tagsInUse          512                       # Average ticks per tags in use ((Tick/Count))
board.cache_hierarchy.clusters0.l1i_cache.tags.totalRefs         2477                       # Total number of references to valid blocks. (Count)
board.cache_hierarchy.clusters0.l1i_cache.tags.sampledRefs           53                       # Sample count of references to valid blocks. (Count)
board.cache_hierarchy.clusters0.l1i_cache.tags.avgRefs    46.735849                       # Average number of references to valid blocks. ((Count/Count))
board.cache_hierarchy.clusters0.l1i_cache.tags.warmupTick            0                       # The tick when the warmup percentage was hit. (Tick)
board.cache_hierarchy.clusters0.l1i_cache.tags.occupancies::processor.cores00.core.inst          512                       # Average occupied blocks per tick, per requestor ((Count/Tick))
board.cache_hierarchy.clusters0.l1i_cache.tags.avgOccs::processor.cores00.core.inst            1                       # Average percentage of cache occupancy ((Ratio/Tick))
board.cache_hierarchy.clusters0.l1i_cache.tags.avgOccs::total            1                       # Average percentage of cache occupancy ((Ratio/Tick))
board.cache_hierarchy.clusters0.l1i_cache.tags.occupanciesTaskId::1024          512                       # Occupied blocks per task id (Count)
board.cache_hierarchy.clusters0.l1i_cache.tags.ageTaskId_1024::0            1                       # Occupied blocks per task id, per block age (Count)
board.cache_hierarchy.clusters0.l1i_cache.tags.ageTaskId_1024::2          109                       # Occupied blocks per task id, per block age (Count)
board.cache_hierarchy.clusters0.l1i_cache.tags.ageTaskId_1024::3          402                       # Occupied blocks per task id, per block age (Count)
board.cache_hierarchy.clusters0.l1i_cache.tags.ratioOccsTaskId::1024            1                       # Ratio of occupied blocks and all blocks, per task id (Ratio)
board.cache_hierarchy.clusters0.l1i_cache.tags.tagAccesses      3224501                       # Number of tag accesses (Count)
board.cache_hierarchy.clusters0.l1i_cache.tags.dataAccesses      3224501                       # Number of data accesses (Count)
board.cache_hierarchy.clusters0.l1i_cache.tags.power_state.pwrStateResidencyTicks::UNDEFINED   2491386120                       # Cumulative time (in ticks) in various power states (Tick)
board.cache_hierarchy.clusters0.l2_bus.transDist::ReadResp        29236                       # Transaction distribution (Count)
board.cache_hierarchy.clusters0.l2_bus.transDist::ReadRespWithInvalidate         8894                       # Transaction distribution (Count)
board.cache_hierarchy.clusters0.l2_bus.transDist::WritebackDirty         5813                       # Transaction distribution (Count)
board.cache_hierarchy.clusters0.l2_bus.transDist::WritebackClean         1174                       # Transaction distribution (Count)
board.cache_hierarchy.clusters0.l2_bus.transDist::CleanEvict          982                       # Transaction distribution (Count)
board.cache_hierarchy.clusters0.l2_bus.transDist::HardPFReq         1364                       # Transaction distribution (Count)
board.cache_hierarchy.clusters0.l2_bus.transDist::UpgradeReq        11797                       # Transaction distribution (Count)
board.cache_hierarchy.clusters0.l2_bus.transDist::SCUpgradeReq          187                       # Transaction distribution (Count)
board.cache_hierarchy.clusters0.l2_bus.transDist::UpgradeResp         6459                       # Transaction distribution (Count)
board.cache_hierarchy.clusters0.l2_bus.transDist::SCUpgradeFailReq          103                       # Transaction distribution (Count)
board.cache_hierarchy.clusters0.l2_bus.transDist::UpgradeFailResp            1                       # Transaction distribution (Count)
board.cache_hierarchy.clusters0.l2_bus.transDist::ReadExReq        31630                       # Transaction distribution (Count)
board.cache_hierarchy.clusters0.l2_bus.transDist::ReadExResp        13859                       # Transaction distribution (Count)
board.cache_hierarchy.clusters0.l2_bus.transDist::ReadSharedReq        84775                       # Transaction distribution (Count)
board.cache_hierarchy.clusters0.l2_bus.pktCount_board.cache_hierarchy.clusters00.l1d_cache.mem_side_port::board.cache_hierarchy.clusters00.l2_cache.cpu_side_port        89724                       # Packet count per connected requestor and responder (Count)
board.cache_hierarchy.clusters0.l2_bus.pktCount_board.cache_hierarchy.clusters00.l1i_cache.mem_side_port::board.cache_hierarchy.clusters00.l2_cache.cpu_side_port          158                       # Packet count per connected requestor and responder (Count)
board.cache_hierarchy.clusters0.l2_bus.pktCount::total        89882                       # Packet count per connected requestor and responder (Count)
board.cache_hierarchy.clusters0.l2_bus.pktSize_board.cache_hierarchy.clusters00.l1d_cache.mem_side_port::board.cache_hierarchy.clusters00.l2_cache.cpu_side_port      3760192                       # Cumulative packet size per connected requestor and responder (Byte)
board.cache_hierarchy.clusters0.l2_bus.pktSize_board.cache_hierarchy.clusters00.l1i_cache.mem_side_port::board.cache_hierarchy.clusters00.l2_cache.cpu_side_port         6784                       # Cumulative packet size per connected requestor and responder (Byte)
board.cache_hierarchy.clusters0.l2_bus.pktSize::total      3766976                       # Cumulative packet size per connected requestor and responder (Byte)
board.cache_hierarchy.clusters0.l2_bus.snoops       140276                       # Total snoops (Count)
board.cache_hierarchy.clusters0.l2_bus.snoopTraffic      2075712                       # Total snoop traffic (Byte)
board.cache_hierarchy.clusters0.l2_bus.snoopFanout::samples       130956                       # Request fanout histogram (Count)
board.cache_hierarchy.clusters0.l2_bus.snoopFanout::mean     0.703839                       # Request fanout histogram (Count)
board.cache_hierarchy.clusters0.l2_bus.snoopFanout::stdev     0.456564                       # Request fanout histogram (Count)
board.cache_hierarchy.clusters0.l2_bus.snoopFanout::underflows            0      0.00%      0.00% # Request fanout histogram (Count)
board.cache_hierarchy.clusters0.l2_bus.snoopFanout::0        38784     29.62%     29.62% # Request fanout histogram (Count)
board.cache_hierarchy.clusters0.l2_bus.snoopFanout::1        92172     70.38%    100.00% # Request fanout histogram (Count)
board.cache_hierarchy.clusters0.l2_bus.snoopFanout::2            0      0.00%    100.00% # Request fanout histogram (Count)
board.cache_hierarchy.clusters0.l2_bus.snoopFanout::3            0      0.00%    100.00% # Request fanout histogram (Count)
board.cache_hierarchy.clusters0.l2_bus.snoopFanout::4            0      0.00%    100.00% # Request fanout histogram (Count)
board.cache_hierarchy.clusters0.l2_bus.snoopFanout::overflows            0      0.00%    100.00% # Request fanout histogram (Count)
board.cache_hierarchy.clusters0.l2_bus.snoopFanout::min_value            0                       # Request fanout histogram (Count)
board.cache_hierarchy.clusters0.l2_bus.snoopFanout::max_value            1                       # Request fanout histogram (Count)
board.cache_hierarchy.clusters0.l2_bus.snoopFanout::total       130956                       # Request fanout histogram (Count)
board.cache_hierarchy.clusters0.l2_bus.power_state.pwrStateResidencyTicks::UNDEFINED   2491386120                       # Cumulative time (in ticks) in various power states (Tick)
board.cache_hierarchy.clusters0.l2_bus.reqLayer0.occupancy     15761111                       # Layer occupancy (ticks) (Tick)
board.cache_hierarchy.clusters0.l2_bus.reqLayer0.utilization          0.0                       # Layer utilization (Ratio)
board.cache_hierarchy.clusters0.l2_bus.respLayer0.occupancy     21230748                       # Layer occupancy (ticks) (Tick)
board.cache_hierarchy.clusters0.l2_bus.respLayer0.utilization          0.0                       # Layer utilization (Ratio)
board.cache_hierarchy.clusters0.l2_bus.respLayer1.occupancy        52947                       # Layer occupancy (ticks) (Tick)
board.cache_hierarchy.clusters0.l2_bus.respLayer1.utilization          0.0                       # Layer utilization (Ratio)
board.cache_hierarchy.clusters0.l2_bus.snoopLayer0.occupancy     32823175                       # Layer occupancy (ticks) (Tick)
board.cache_hierarchy.clusters0.l2_bus.snoopLayer0.utilization          0.0                       # Layer utilization (Ratio)
board.cache_hierarchy.clusters0.l2_bus.snoop_filter.totRequests        31433                       # Total number of requests made to the snoop filter. (Count)
board.cache_hierarchy.clusters0.l2_bus.snoop_filter.hitSingleRequests        16209                       # Number of requests hitting in the snoop filter with a single holder of the requested data. (Count)
board.cache_hierarchy.clusters0.l2_bus.snoop_filter.hitMultiRequests            0                       # Number of requests hitting in the snoop filter with multiple (>1) holders of the requested data. (Count)
board.cache_hierarchy.clusters0.l2_bus.snoop_filter.totSnoops        92172                       # Total number of snoops made to the snoop filter. (Count)
board.cache_hierarchy.clusters0.l2_bus.snoop_filter.hitSingleSnoops        92172                       # Number of snoops hitting in the snoop filter with a single holder of the requested data. (Count)
board.cache_hierarchy.clusters0.l2_bus.snoop_filter.hitMultiSnoops            0                       # Number of snoops hitting in the snoop filter with multiple (>1) holders of the requested data. (Count)
board.cache_hierarchy.clusters0.l2_cache.demandHits::cache_hierarchy.clusters00.l1d_cache.prefetcher          758                       # number of demand (read+write) hits (Count)
board.cache_hierarchy.clusters0.l2_cache.demandHits::processor.cores00.core.inst           22                       # number of demand (read+write) hits (Count)
board.cache_hierarchy.clusters0.l2_cache.demandHits::processor.cores00.core.data          609                       # number of demand (read+write) hits (Count)
board.cache_hierarchy.clusters0.l2_cache.demandHits::total         1389                       # number of demand (read+write) hits (Count)
board.cache_hierarchy.clusters0.l2_cache.overallHits::cache_hierarchy.clusters00.l1d_cache.prefetcher          758                       # number of overall hits (Count)
board.cache_hierarchy.clusters0.l2_cache.overallHits::processor.cores00.core.inst           22                       # number of overall hits (Count)
board.cache_hierarchy.clusters0.l2_cache.overallHits::processor.cores00.core.data          609                       # number of overall hits (Count)
board.cache_hierarchy.clusters0.l2_cache.overallHits::total         1389                       # number of overall hits (Count)
board.cache_hierarchy.clusters0.l2_cache.demandMisses::cache_hierarchy.clusters00.l1d_cache.prefetcher          265                       # number of demand (read+write) misses (Count)
board.cache_hierarchy.clusters0.l2_cache.demandMisses::processor.cores00.core.inst           30                       # number of demand (read+write) misses (Count)
board.cache_hierarchy.clusters0.l2_cache.demandMisses::processor.cores00.core.data        17389                       # number of demand (read+write) misses (Count)
board.cache_hierarchy.clusters0.l2_cache.demandMisses::total        17684                       # number of demand (read+write) misses (Count)
board.cache_hierarchy.clusters0.l2_cache.overallMisses::cache_hierarchy.clusters00.l1d_cache.prefetcher          265                       # number of overall misses (Count)
board.cache_hierarchy.clusters0.l2_cache.overallMisses::processor.cores00.core.inst           30                       # number of overall misses (Count)
board.cache_hierarchy.clusters0.l2_cache.overallMisses::processor.cores00.core.data        17389                       # number of overall misses (Count)
board.cache_hierarchy.clusters0.l2_cache.overallMisses::total        17684                       # number of overall misses (Count)
board.cache_hierarchy.clusters0.l2_cache.demandMissLatency::cache_hierarchy.clusters00.l1d_cache.prefetcher      2418576                       # number of demand (read+write) miss ticks (Tick)
board.cache_hierarchy.clusters0.l2_cache.demandMissLatency::processor.cores00.core.inst      1419912                       # number of demand (read+write) miss ticks (Tick)
board.cache_hierarchy.clusters0.l2_cache.demandMissLatency::processor.cores00.core.data    365942497                       # number of demand (read+write) miss ticks (Tick)
board.cache_hierarchy.clusters0.l2_cache.demandMissLatency::total    369780985                       # number of demand (read+write) miss ticks (Tick)
board.cache_hierarchy.clusters0.l2_cache.overallMissLatency::cache_hierarchy.clusters00.l1d_cache.prefetcher      2418576                       # number of overall miss ticks (Tick)
board.cache_hierarchy.clusters0.l2_cache.overallMissLatency::processor.cores00.core.inst      1419912                       # number of overall miss ticks (Tick)
board.cache_hierarchy.clusters0.l2_cache.overallMissLatency::processor.cores00.core.data    365942497                       # number of overall miss ticks (Tick)
board.cache_hierarchy.clusters0.l2_cache.overallMissLatency::total    369780985                       # number of overall miss ticks (Tick)
board.cache_hierarchy.clusters0.l2_cache.demandAccesses::cache_hierarchy.clusters00.l1d_cache.prefetcher         1023                       # number of demand (read+write) accesses (Count)
board.cache_hierarchy.clusters0.l2_cache.demandAccesses::processor.cores00.core.inst           52                       # number of demand (read+write) accesses (Count)
board.cache_hierarchy.clusters0.l2_cache.demandAccesses::processor.cores00.core.data        17998                       # number of demand (read+write) accesses (Count)
board.cache_hierarchy.clusters0.l2_cache.demandAccesses::total        19073                       # number of demand (read+write) accesses (Count)
board.cache_hierarchy.clusters0.l2_cache.overallAccesses::cache_hierarchy.clusters00.l1d_cache.prefetcher         1023                       # number of overall (read+write) accesses (Count)
board.cache_hierarchy.clusters0.l2_cache.overallAccesses::processor.cores00.core.inst           52                       # number of overall (read+write) accesses (Count)
board.cache_hierarchy.clusters0.l2_cache.overallAccesses::processor.cores00.core.data        17998                       # number of overall (read+write) accesses (Count)
board.cache_hierarchy.clusters0.l2_cache.overallAccesses::total        19073                       # number of overall (read+write) accesses (Count)
board.cache_hierarchy.clusters0.l2_cache.demandMissRate::cache_hierarchy.clusters00.l1d_cache.prefetcher     0.259042                       # miss rate for demand accesses (Ratio)
board.cache_hierarchy.clusters0.l2_cache.demandMissRate::processor.cores00.core.inst     0.576923                       # miss rate for demand accesses (Ratio)
board.cache_hierarchy.clusters0.l2_cache.demandMissRate::processor.cores00.core.data     0.966163                       # miss rate for demand accesses (Ratio)
board.cache_hierarchy.clusters0.l2_cache.demandMissRate::total     0.927175                       # miss rate for demand accesses (Ratio)
board.cache_hierarchy.clusters0.l2_cache.overallMissRate::cache_hierarchy.clusters00.l1d_cache.prefetcher     0.259042                       # miss rate for overall accesses (Ratio)
board.cache_hierarchy.clusters0.l2_cache.overallMissRate::processor.cores00.core.inst     0.576923                       # miss rate for overall accesses (Ratio)
board.cache_hierarchy.clusters0.l2_cache.overallMissRate::processor.cores00.core.data     0.966163                       # miss rate for overall accesses (Ratio)
board.cache_hierarchy.clusters0.l2_cache.overallMissRate::total     0.927175                       # miss rate for overall accesses (Ratio)
board.cache_hierarchy.clusters0.l2_cache.demandAvgMissLatency::cache_hierarchy.clusters00.l1d_cache.prefetcher  9126.701887                       # average overall miss latency in ticks ((Tick/Count))
board.cache_hierarchy.clusters0.l2_cache.demandAvgMissLatency::processor.cores00.core.inst 47330.400000                       # average overall miss latency in ticks ((Tick/Count))
board.cache_hierarchy.clusters0.l2_cache.demandAvgMissLatency::processor.cores00.core.data 21044.481971                       # average overall miss latency in ticks ((Tick/Count))
board.cache_hierarchy.clusters0.l2_cache.demandAvgMissLatency::total 20910.483205                       # average overall miss latency in ticks ((Tick/Count))
board.cache_hierarchy.clusters0.l2_cache.overallAvgMissLatency::cache_hierarchy.clusters00.l1d_cache.prefetcher  9126.701887                       # average overall miss latency ((Tick/Count))
board.cache_hierarchy.clusters0.l2_cache.overallAvgMissLatency::processor.cores00.core.inst 47330.400000                       # average overall miss latency ((Tick/Count))
board.cache_hierarchy.clusters0.l2_cache.overallAvgMissLatency::processor.cores00.core.data 21044.481971                       # average overall miss latency ((Tick/Count))
board.cache_hierarchy.clusters0.l2_cache.overallAvgMissLatency::total 20910.483205                       # average overall miss latency ((Tick/Count))
board.cache_hierarchy.clusters0.l2_cache.blockedCycles::no_mshrs            0                       # number of cycles access was blocked (Cycle)
board.cache_hierarchy.clusters0.l2_cache.blockedCycles::no_wbuffers            0                       # number of cycles access was blocked (Cycle)
board.cache_hierarchy.clusters0.l2_cache.blockedCycles::no_targets            0                       # number of cycles access was blocked (Cycle)
board.cache_hierarchy.clusters0.l2_cache.blockedCauses::no_mshrs            0                       # number of times access was blocked (Count)
board.cache_hierarchy.clusters0.l2_cache.blockedCauses::no_wbuffers            0                       # number of times access was blocked (Count)
board.cache_hierarchy.clusters0.l2_cache.blockedCauses::no_targets            0                       # number of times access was blocked (Count)
board.cache_hierarchy.clusters0.l2_cache.avgBlocked::no_mshrs          nan                       # average number of cycles each access was blocked ((Cycle/Count))
board.cache_hierarchy.clusters0.l2_cache.avgBlocked::no_wbuffers          nan                       # average number of cycles each access was blocked ((Cycle/Count))
board.cache_hierarchy.clusters0.l2_cache.avgBlocked::no_targets          nan                       # average number of cycles each access was blocked ((Cycle/Count))
board.cache_hierarchy.clusters0.l2_cache.writebacks::writebacks          118                       # number of writebacks (Count)
board.cache_hierarchy.clusters0.l2_cache.writebacks::total          118                       # number of writebacks (Count)
board.cache_hierarchy.clusters0.l2_cache.demandMshrHits::cache_hierarchy.clusters00.l1d_cache.prefetcher          178                       # number of demand (read+write) MSHR hits (Count)
board.cache_hierarchy.clusters0.l2_cache.demandMshrHits::total          178                       # number of demand (read+write) MSHR hits (Count)
board.cache_hierarchy.clusters0.l2_cache.overallMshrHits::cache_hierarchy.clusters00.l1d_cache.prefetcher          178                       # number of overall MSHR hits (Count)
board.cache_hierarchy.clusters0.l2_cache.overallMshrHits::total          178                       # number of overall MSHR hits (Count)
board.cache_hierarchy.clusters0.l2_cache.demandMshrMisses::cache_hierarchy.clusters00.l1d_cache.prefetcher           87                       # number of demand (read+write) MSHR misses (Count)
board.cache_hierarchy.clusters0.l2_cache.demandMshrMisses::processor.cores00.core.inst           30                       # number of demand (read+write) MSHR misses (Count)
board.cache_hierarchy.clusters0.l2_cache.demandMshrMisses::processor.cores00.core.data        17389                       # number of demand (read+write) MSHR misses (Count)
board.cache_hierarchy.clusters0.l2_cache.demandMshrMisses::total        17506                       # number of demand (read+write) MSHR misses (Count)
board.cache_hierarchy.clusters0.l2_cache.overallMshrMisses::cache_hierarchy.clusters00.l1d_cache.prefetcher           87                       # number of overall MSHR misses (Count)
board.cache_hierarchy.clusters0.l2_cache.overallMshrMisses::cache_hierarchy.clusters00.l2_cache.prefetcher          861                       # number of overall MSHR misses (Count)
board.cache_hierarchy.clusters0.l2_cache.overallMshrMisses::processor.cores00.core.inst           30                       # number of overall MSHR misses (Count)
board.cache_hierarchy.clusters0.l2_cache.overallMshrMisses::processor.cores00.core.data        17389                       # number of overall MSHR misses (Count)
board.cache_hierarchy.clusters0.l2_cache.overallMshrMisses::total        18367                       # number of overall MSHR misses (Count)
board.cache_hierarchy.clusters0.l2_cache.demandMshrMissLatency::cache_hierarchy.clusters00.l1d_cache.prefetcher      1333665                       # number of demand (read+write) MSHR miss ticks (Tick)
board.cache_hierarchy.clusters0.l2_cache.demandMshrMissLatency::processor.cores00.core.inst      1409589                       # number of demand (read+write) MSHR miss ticks (Tick)
board.cache_hierarchy.clusters0.l2_cache.demandMshrMissLatency::processor.cores00.core.data    359951827                       # number of demand (read+write) MSHR miss ticks (Tick)
board.cache_hierarchy.clusters0.l2_cache.demandMshrMissLatency::total    362695081                       # number of demand (read+write) MSHR miss ticks (Tick)
board.cache_hierarchy.clusters0.l2_cache.overallMshrMissLatency::cache_hierarchy.clusters00.l1d_cache.prefetcher      1333665                       # number of overall MSHR miss ticks (Tick)
board.cache_hierarchy.clusters0.l2_cache.overallMshrMissLatency::cache_hierarchy.clusters00.l2_cache.prefetcher      7359261                       # number of overall MSHR miss ticks (Tick)
board.cache_hierarchy.clusters0.l2_cache.overallMshrMissLatency::processor.cores00.core.inst      1409589                       # number of overall MSHR miss ticks (Tick)
board.cache_hierarchy.clusters0.l2_cache.overallMshrMissLatency::processor.cores00.core.data    359951827                       # number of overall MSHR miss ticks (Tick)
board.cache_hierarchy.clusters0.l2_cache.overallMshrMissLatency::total    370054342                       # number of overall MSHR miss ticks (Tick)
board.cache_hierarchy.clusters0.l2_cache.demandMshrMissRate::cache_hierarchy.clusters00.l1d_cache.prefetcher     0.085044                       # mshr miss ratio for demand accesses (Ratio)
board.cache_hierarchy.clusters0.l2_cache.demandMshrMissRate::processor.cores00.core.inst     0.576923                       # mshr miss ratio for demand accesses (Ratio)
board.cache_hierarchy.clusters0.l2_cache.demandMshrMissRate::processor.cores00.core.data     0.966163                       # mshr miss ratio for demand accesses (Ratio)
board.cache_hierarchy.clusters0.l2_cache.demandMshrMissRate::total     0.917842                       # mshr miss ratio for demand accesses (Ratio)
board.cache_hierarchy.clusters0.l2_cache.overallMshrMissRate::cache_hierarchy.clusters00.l1d_cache.prefetcher     0.085044                       # mshr miss ratio for overall accesses (Ratio)
board.cache_hierarchy.clusters0.l2_cache.overallMshrMissRate::cache_hierarchy.clusters00.l2_cache.prefetcher          inf                       # mshr miss ratio for overall accesses (Ratio)
board.cache_hierarchy.clusters0.l2_cache.overallMshrMissRate::processor.cores00.core.inst     0.576923                       # mshr miss ratio for overall accesses (Ratio)
board.cache_hierarchy.clusters0.l2_cache.overallMshrMissRate::processor.cores00.core.data     0.966163                       # mshr miss ratio for overall accesses (Ratio)
board.cache_hierarchy.clusters0.l2_cache.overallMshrMissRate::total     0.962984                       # mshr miss ratio for overall accesses (Ratio)
board.cache_hierarchy.clusters0.l2_cache.demandAvgMshrMissLatency::cache_hierarchy.clusters00.l1d_cache.prefetcher 15329.482759                       # average overall mshr miss latency ((Tick/Count))
board.cache_hierarchy.clusters0.l2_cache.demandAvgMshrMissLatency::processor.cores00.core.inst 46986.300000                       # average overall mshr miss latency ((Tick/Count))
board.cache_hierarchy.clusters0.l2_cache.demandAvgMshrMissLatency::processor.cores00.core.data 20699.972799                       # average overall mshr miss latency ((Tick/Count))
board.cache_hierarchy.clusters0.l2_cache.demandAvgMshrMissLatency::total 20718.329773                       # average overall mshr miss latency ((Tick/Count))
board.cache_hierarchy.clusters0.l2_cache.overallAvgMshrMissLatency::cache_hierarchy.clusters00.l1d_cache.prefetcher 15329.482759                       # average overall mshr miss latency ((Tick/Count))
board.cache_hierarchy.clusters0.l2_cache.overallAvgMshrMissLatency::cache_hierarchy.clusters00.l2_cache.prefetcher  8547.341463                       # average overall mshr miss latency ((Tick/Count))
board.cache_hierarchy.clusters0.l2_cache.overallAvgMshrMissLatency::processor.cores00.core.inst 46986.300000                       # average overall mshr miss latency ((Tick/Count))
board.cache_hierarchy.clusters0.l2_cache.overallAvgMshrMissLatency::processor.cores00.core.data 20699.972799                       # average overall mshr miss latency ((Tick/Count))
board.cache_hierarchy.clusters0.l2_cache.overallAvgMshrMissLatency::total 20147.783634                       # average overall mshr miss latency ((Tick/Count))
[...]
board.processor.cores9.core.commitStats0.committedInstType::SimdDotProd            0      0.00%     60.00% # Class of committed instruction. (Count)
board.processor.cores9.core.commitStats0.committedInstType::Matrix            0      0.00%     60.00% # Class of committed instruction. (Count)
board.processor.cores9.core.commitStats0.committedInstType::MatrixMov            0      0.00%     60.00% # Class of committed instruction. (Count)
board.processor.cores9.core.commitStats0.committedInstType::MatrixOP            0      0.00%     60.00% # Class of committed instruction. (Count)
board.processor.cores9.core.commitStats0.committedInstType::MemRead       576165     30.60%     90.60% # Class of committed instruction. (Count)
board.processor.cores9.core.commitStats0.committedInstType::MemWrite       152945      8.12%     98.72% # Class of committed instruction. (Count)
board.processor.cores9.core.commitStats0.committedInstType::FloatMemRead        17284      0.92%     99.64% # Class of committed instruction. (Count)
board.processor.cores9.core.commitStats0.committedInstType::FloatMemWrite         6740      0.36%    100.00% # Class of committed instruction. (Count)
board.processor.cores9.core.commitStats0.committedInstType::InstPrefetch            0      0.00%    100.00% # Class of committed instruction. (Count)
board.processor.cores9.core.commitStats0.committedInstType::SimdUnitStrideLoad            0      0.00%    100.00% # Class of committed instruction. (Count)
board.processor.cores9.core.commitStats0.committedInstType::SimdUnitStrideStore            0      0.00%    100.00% # Class of committed instruction. (Count)
board.processor.cores9.core.commitStats0.committedInstType::SimdUnitStrideMaskLoad            0      0.00%    100.00% # Class of committed instruction. (Count)
board.processor.cores9.core.commitStats0.committedInstType::SimdUnitStrideMaskStore            0      0.00%    100.00% # Class of committed instruction. (Count)
board.processor.cores9.core.commitStats0.committedInstType::SimdStridedLoad            0      0.00%    100.00% # Class of committed instruction. (Count)
board.processor.cores9.core.commitStats0.committedInstType::SimdStridedStore            0      0.00%    100.00% # Class of committed instruction. (Count)
board.processor.cores9.core.commitStats0.committedInstType::SimdIndexedLoad            0      0.00%    100.00% # Class of committed instruction. (Count)
board.processor.cores9.core.commitStats0.committedInstType::SimdIndexedStore            0      0.00%    100.00% # Class of committed instruction. (Count)
board.processor.cores9.core.commitStats0.committedInstType::SimdWholeRegisterLoad            0      0.00%    100.00% # Class of committed instruction. (Count)
board.processor.cores9.core.commitStats0.committedInstType::SimdWholeRegisterStore            0      0.00%    100.00% # Class of committed instruction. (Count)
board.processor.cores9.core.commitStats0.committedInstType::SimdUnitStrideFaultOnlyFirstLoad            0      0.00%    100.00% # Class of committed instruction. (Count)
board.processor.cores9.core.commitStats0.committedInstType::SimdUnitStrideSegmentedLoad            0      0.00%    100.00% # Class of committed instruction. (Count)
board.processor.cores9.core.commitStats0.committedInstType::SimdUnitStrideSegmentedStore            0      0.00%    100.00% # Class of committed instruction. (Count)
board.processor.cores9.core.commitStats0.committedInstType::SimdUnitStrideSegmentedFaultOnlyFirstLoad            0      0.00%    100.00% # Class of committed instruction. (Count)
board.processor.cores9.core.commitStats0.committedInstType::SimdStrideSegmentedLoad            0      0.00%    100.00% # Class of committed instruction. (Count)
board.processor.cores9.core.commitStats0.committedInstType::SimdStrideSegmentedStore            0      0.00%    100.00% # Class of committed instruction. (Count)
board.processor.cores9.core.commitStats0.committedInstType::SimdExt            0      0.00%    100.00% # Class of committed instruction. (Count)
board.processor.cores9.core.commitStats0.committedInstType::SimdFloatExt            0      0.00%    100.00% # Class of committed instruction. (Count)
board.processor.cores9.core.commitStats0.committedInstType::SimdConfig            0      0.00%    100.00% # Class of committed instruction. (Count)
board.processor.cores9.core.commitStats0.committedInstType::SimdBf16Add            0      0.00%    100.00% # Class of committed instruction. (Count)
board.processor.cores9.core.commitStats0.committedInstType::SimdBf16Cmp            0      0.00%    100.00% # Class of committed instruction. (Count)
board.processor.cores9.core.commitStats0.committedInstType::SimdBf16Cvt            0      0.00%    100.00% # Class of committed instruction. (Count)
board.processor.cores9.core.commitStats0.committedInstType::SimdBf16DotProd            0      0.00%    100.00% # Class of committed instruction. (Count)
board.processor.cores9.core.commitStats0.committedInstType::SimdBf16MatMultAcc            0      0.00%    100.00% # Class of committed instruction. (Count)
board.processor.cores9.core.commitStats0.committedInstType::SimdBf16Mult            0      0.00%    100.00% # Class of committed instruction. (Count)
board.processor.cores9.core.commitStats0.committedInstType::SimdBf16MultAcc            0      0.00%    100.00% # Class of committed instruction. (Count)
board.processor.cores9.core.commitStats0.committedInstType::Bf16Cvt            0      0.00%    100.00% # Class of committed instruction. (Count)
board.processor.cores9.core.commitStats0.committedInstType::System            0      0.00%    100.00% # Class of committed instruction. (Count)
board.processor.cores9.core.commitStats0.committedInstType::total      1882763                       # Class of committed instruction. (Count)
board.processor.cores9.core.commitStats0.committedControl::IsControl       287921                       # Class of control type instructions committed (Count)
board.processor.cores9.core.commitStats0.committedControl::IsDirectControl       218913                       # Class of control type instructions committed (Count)
board.processor.cores9.core.commitStats0.committedControl::IsIndirectControl        69008                       # Class of control type instructions committed (Count)
board.processor.cores9.core.commitStats0.committedControl::IsCondControl       143931                       # Class of control type instructions committed (Count)
board.processor.cores9.core.commitStats0.committedControl::IsUncondControl       143990                       # Class of control type instructions committed (Count)
board.processor.cores9.core.commitStats0.committedControl::IsCall        68806                       # Class of control type instructions committed (Count)
board.processor.cores9.core.commitStats0.committedControl::IsReturn        68807                       # Class of control type instructions committed (Count)
board.processor.cores9.core.commitStats0.functionCalls        68806                       # Number of function calls committed (Count)
board.processor.cores9.core.commitStats0.numCallsReturns       137613                       # Number of function calls and returns committed (Count)
board.processor.cores9.core.executeStats0.numInsts      1881959                       # Number of executed instructions (Count)
board.processor.cores9.core.executeStats0.numNop            0                       # Number of nop insts executed (Count)
board.processor.cores9.core.executeStats0.numBranches       287921                       # Number of branches executed (Count)
board.processor.cores9.core.executeStats0.numLoadInsts       593047                       # Number of load instructions executed (Count)
board.processor.cores9.core.executeStats0.numStoreInsts       160087                       # Number of stores executed (Count)
board.processor.cores9.core.executeStats0.instRate     0.653043                       # Inst execution rate ((Count/Cycle))
board.processor.cores9.core.executeStats0.numFpAluAccesses        36931                       # Number of float alu accesses (Count)
board.processor.cores9.core.executeStats0.numFpRegReads        30017                       # Number of times the floating registers were read (Count)
board.processor.cores9.core.executeStats0.numFpRegWrites        30017                       # Number of times the floating registers were written (Count)
board.processor.cores9.core.executeStats0.numIntAluAccesses      1866620                       # Number of integer alu accesses (Count)
board.processor.cores9.core.executeStats0.numIntRegReads      2044619                       # Number of times the integer registers were read (Count)
board.processor.cores9.core.executeStats0.numIntRegWrites      1405920                       # Number of times the integer registers were written (Count)
board.processor.cores9.core.executeStats0.numMemRefs       753134                       # Number of memory refs (Count)
board.processor.cores9.core.executeStats0.numVecAluAccesses            0                       # Number of vector alu accesses (Count)
board.processor.cores9.core.executeStats0.numDiscardedOps         3594                       # Number of ops (including micro ops) which were discarded before commit (Count)
board.processor.cores9.core.fetch2.totalInstructions      1909312                       # Total number of instructions successfully decoded (Count)
board.processor.cores9.core.fetch2.intInstructions      1121855                       # Number of integer instructions successfully decoded (Count)
board.processor.cores9.core.fetch2.fpInstructions        13658                       # Number of floating point instructions successfully decoded (Count)
board.processor.cores9.core.fetch2.vecInstructions            0                       # Number of SIMD instructions successfully decoded (Count)
board.processor.cores9.core.fetch2.loadInstructions       602159                       # Number of memory load instructions successfully decoded (Count)
board.processor.cores9.core.fetch2.storeInstructions       160903                       # Number of memory store instructions successfully decoded (Count)
board.processor.cores9.core.fetch2.amoInstructions            0                       # Number of memory atomic instructions successfully decoded (Count)
board.processor.cores9.core.fetchStats0.numInsts      1909312                       # Number of instructions fetched (thread level) (Count)
board.processor.cores9.core.fetchStats0.numOps            0                       # Number of ops (including micro ops) fetched (thread level) (Count)
board.processor.cores9.core.fetchStats0.fetchRate     0.662534                       # Number of inst fetches per cycle ((Count/Cycle))
board.processor.cores9.core.fetchStats0.numBranches       291481                       # Number of branches fetched (Count)
board.processor.cores9.core.fetchStats0.branchRate     0.101144                       # Number of branch fetches per cycle (Ratio)
board.processor.cores9.core.fetchStats0.numFetchSuspends            0                       # Number of times Execute suspended instruction fetching (Count)
board.processor.cores9.core.mmu.dtb.readHits            0                       # read hits (Count)
board.processor.cores9.core.mmu.dtb.readMisses            0                       # read misses (Count)
board.processor.cores9.core.mmu.dtb.readAccesses            0                       # read accesses (Count)
board.processor.cores9.core.mmu.dtb.writeHits            0                       # write hits (Count)
board.processor.cores9.core.mmu.dtb.writeMisses            0                       # write misses (Count)
board.processor.cores9.core.mmu.dtb.writeAccesses            0                       # write accesses (Count)
board.processor.cores9.core.mmu.dtb.hits            0                       # Total TLB (read and write) hits (Count)
board.processor.cores9.core.mmu.dtb.misses            0                       # Total TLB (read and write) misses (Count)
board.processor.cores9.core.mmu.dtb.accesses            0                       # Total TLB (read and write) accesses (Count)
board.processor.cores9.core.mmu.dtb.walker.num_4kb_walks            0                       # Completed page walks with 4KB pages (Count)
board.processor.cores9.core.mmu.dtb.walker.num_64kb_walks            0                       # Completed page walks with 64KB pages (Count)
board.processor.cores9.core.mmu.dtb.walker.num_2mb_walks            0                       # Completed page walks with 2MB pages (Count)
board.processor.cores9.core.mmu.dtb.walker.power_state.pwrStateResidencyTicks::UNDEFINED   2491386120                       # Cumulative time (in ticks) in various power states (Tick)
board.processor.cores9.core.mmu.itb.readHits            0                       # read hits (Count)
board.processor.cores9.core.mmu.itb.readMisses            0                       # read misses (Count)
board.processor.cores9.core.mmu.itb.readAccesses            0                       # read accesses (Count)
board.processor.cores9.core.mmu.itb.writeHits            0                       # write hits (Count)
board.processor.cores9.core.mmu.itb.writeMisses            0                       # write misses (Count)
board.processor.cores9.core.mmu.itb.writeAccesses            0                       # write accesses (Count)
board.processor.cores9.core.mmu.itb.hits            0                       # Total TLB (read and write) hits (Count)
board.processor.cores9.core.mmu.itb.misses            0                       # Total TLB (read and write) misses (Count)
board.processor.cores9.core.mmu.itb.accesses            0                       # Total TLB (read and write) accesses (Count)
board.processor.cores9.core.mmu.itb.walker.num_4kb_walks            0                       # Completed page walks with 4KB pages (Count)
board.processor.cores9.core.mmu.itb.walker.num_64kb_walks            0                       # Completed page walks with 64KB pages (Count)
board.processor.cores9.core.mmu.itb.walker.num_2mb_walks            0                       # Completed page walks with 2MB pages (Count)
board.processor.cores9.core.mmu.itb.walker.power_state.pwrStateResidencyTicks::UNDEFINED   2491386120                       # Cumulative time (in ticks) in various power states (Tick)
board.processor.cores9.core.power_state.pwrStateResidencyTicks::ON   2491386120                       # Cumulative time (in ticks) in various power states (Tick)
board.processor.cores9.core.thread_0.numInsts      1881959                       # Number of Instructions committed (Count)
board.processor.cores9.core.thread_0.numOps      1882763                       # Number of Ops committed (Count)
board.processor.cores9.core.thread_0.numMemRefs       753134                       # Number of Memory References (Count)
board.workload.inst.arm                             0                       # number of arm instructions executed (Count)
board.workload.inst.quiesce                         0                       # number of quiesce instructions executed (Count)
board.processor.cores00.core.idleCycles       1067773                       # Total number of cycles that the object has spent stopped (Unspecified)
board.processor.cores00.core.tickCycles       1814058                       # Number of cycles that the object actually ticked (Unspecified)
board.processor.cores01.core.idleCycles        875505                       # Total number of cycles that the object has spent stopped (Unspecified)
board.processor.cores01.core.tickCycles       2006326                       # Number of cycles that the object actually ticked (Unspecified)
board.processor.cores02.core.idleCycles        870815                       # Total number of cycles that the object has spent stopped (Unspecified)
board.processor.cores02.core.tickCycles       2011016                       # Number of cycles that the object actually ticked (Unspecified)
board.processor.cores03.core.idleCycles        849986                       # Total number of cycles that the object has spent stopped (Unspecified)
board.processor.cores03.core.tickCycles       2031845                       # Number of cycles that the object actually ticked (Unspecified)
board.processor.cores04.core.idleCycles        827706                       # Total number of cycles that the object has spent stopped (Unspecified)
board.processor.cores04.core.tickCycles       2054125                       # Number of cycles that the object actually ticked (Unspecified)
board.processor.cores05.core.idleCycles        824542                       # Total number of cycles that the object has spent stopped (Unspecified)
board.processor.cores05.core.tickCycles       2057289                       # Number of cycles that the object actually ticked (Unspecified)
board.processor.cores06.core.idleCycles        822646                       # Total number of cycles that the object has spent stopped (Unspecified)
board.processor.cores06.core.tickCycles       2059185                       # Number of cycles that the object actually ticked (Unspecified)
board.processor.cores07.core.idleCycles        810648                       # Total number of cycles that the object has spent stopped (Unspecified)
board.processor.cores07.core.tickCycles       2071183                       # Number of cycles that the object actually ticked (Unspecified)
board.processor.cores08.core.idleCycles        831058                       # Total number of cycles that the object has spent stopped (Unspecified)
board.processor.cores08.core.tickCycles       2050773                       # Number of cycles that the object actually ticked (Unspecified)
board.processor.cores09.core.idleCycles        816396                       # Total number of cycles that the object has spent stopped (Unspecified)
board.processor.cores09.core.tickCycles       2065435                       # Number of cycles that the object actually ticked (Unspecified)
board.processor.cores10.core.idleCycles        794747                       # Total number of cycles that the object has spent stopped (Unspecified)
board.processor.cores10.core.tickCycles       2087084                       # Number of cycles that the object actually ticked (Unspecified)
board.processor.cores11.core.idleCycles        776878                       # Total number of cycles that the object has spent stopped (Unspecified)
board.processor.cores11.core.tickCycles       2104953                       # Number of cycles that the object actually ticked (Unspecified)
board.processor.cores12.core.idleCycles        759448                       # Total number of cycles that the object has spent stopped (Unspecified)
board.processor.cores12.core.tickCycles       2122383                       # Number of cycles that the object actually ticked (Unspecified)
board.processor.cores13.core.idleCycles        737979                       # Total number of cycles that the object has spent stopped (Unspecified)
board.processor.cores13.core.tickCycles       2143852                       # Number of cycles that the object actually ticked (Unspecified)
board.processor.cores14.core.idleCycles        755683                       # Total number of cycles that the object has spent stopped (Unspecified)
board.processor.cores14.core.tickCycles       2126148                       # Number of cycles that the object actually ticked (Unspecified)
board.processor.cores15.core.idleCycles        694100                       # Total number of cycles that the object has spent stopped (Unspecified)
board.processor.cores15.core.tickCycles       2187731                       # Number of cycles that the object actually ticked (Unspecified)

---------- End Simulation Statistics   ----------
