
---------- Begin Simulation Statistics ----------
simSeconds                                   0.000201                       # Number of seconds simulated (Second)
simTicks                                    200872260                       # Number of ticks simulated (Tick)
finalTick                                  1725923682                       # Number of ticks from beginning of simulation (restored from checkpoints and never reset) (Tick)
simFreq                                  1000000000000                       # The number of ticks per simulated second ((Tick/Second))
hostSeconds                                     11.05                       # Real time elapsed on the host (Second)
hostTickRate                                 18175921                       # The number of ticks simulated per host second (ticks/s) ((Tick/Second))
hostMemory                                    5025160                       # Number of bytes of host memory used (Byte)
simInsts                                      2175891                       # Number of instructions simulated (Count)
simOps                                        2176148                       # Number of ops (including micro ops) simulated (Count)
hostInstRate                                   196882                       # Simulator instruction rate (inst/s) ((Count/Second))
hostOpRate                                     196905                       # Simulator op (including micro ops) rate (op/s) ((Count/Second))
board.cache_hierarchy.ruby_system.delayHistogram::bucket_size          512                       # delay histogram for all message (Unspecified)
board.cache_hierarchy.ruby_system.delayHistogram::max_bucket         5119                       # delay histogram for all message (Unspecified)
board.cache_hierarchy.ruby_system.delayHistogram::samples        34195                       # delay histogram for all message (Unspecified)
board.cache_hierarchy.ruby_system.delayHistogram::mean     1.272730                       # delay histogram for all message (Unspecified)
board.cache_hierarchy.ruby_system.delayHistogram::stdev    37.436423                       # delay histogram for all message (Unspecified)
board.cache_hierarchy.ruby_system.delayHistogram |       34184     99.97%     99.97% |           2      0.01%     99.97% |           2      0.01%     99.98% |           2      0.01%     99.99% |           2      0.01%     99.99% |           2      0.01%    100.00% |           1      0.00%    100.00% |           0      0.00%    100.00% |           0      0.00%    100.00% |           0      0.00%    100.00% # delay histogram for all message (Unspecified)
board.cache_hierarchy.ruby_system.delayHistogram::total        34195                       # delay histogram for all message (Unspecified)
board.cache_hierarchy.ruby_system.m_outstandReqHistSeqr::bucket_size            1                       (Unspecified)
board.cache_hierarchy.ruby_system.m_outstandReqHistSeqr::max_bucket            9                       (Unspecified)
board.cache_hierarchy.ruby_system.m_outstandReqHistSeqr::samples      3546012                       (Unspecified)
board.cache_hierarchy.ruby_system.m_outstandReqHistSeqr::mean            1                       (Unspecified)
board.cache_hierarchy.ruby_system.m_outstandReqHistSeqr::gmean            1                       (Unspecified)
board.cache_hierarchy.ruby_system.m_outstandReqHistSeqr |           0      0.00%      0.00% |     3546012    100.00%    100.00% |           0      0.00%    100.00% |           0      0.00%    100.00% |           0      0.00%    100.00% |           0      0.00%    100.00% |           0      0.00%    100.00% |           0      0.00%    100.00% |           0      0.00%    100.00% |           0      0.00%    100.00% (Unspecified)
board.cache_hierarchy.ruby_system.m_outstandReqHistSeqr::total      3546012                       (Unspecified)
board.cache_hierarchy.ruby_system.m_latencyHistSeqr::bucket_size          256                       (Unspecified)
board.cache_hierarchy.ruby_system.m_latencyHistSeqr::max_bucket         2559                       (Unspecified)
board.cache_hierarchy.ruby_system.m_latencyHistSeqr::samples      3546003                       (Unspecified)
board.cache_hierarchy.ruby_system.m_latencyHistSeqr::mean     1.192163                       (Unspecified)
board.cache_hierarchy.ruby_system.m_latencyHistSeqr::gmean     1.007972                       (Unspecified)
board.cache_hierarchy.ruby_system.m_latencyHistSeqr::stdev     6.976077                       (Unspecified)
board.cache_hierarchy.ruby_system.m_latencyHistSeqr |     3545634     99.99%     99.99% |         254      0.01%    100.00% |          86      0.00%    100.00% |          26      0.00%    100.00% |           2      0.00%    100.00% |           1      0.00%    100.00% |           0      0.00%    100.00% |           0      0.00%    100.00% |           0      0.00%    100.00% |           0      0.00%    100.00% (Unspecified)
board.cache_hierarchy.ruby_system.m_latencyHistSeqr::total      3546003                       (Unspecified)
board.cache_hierarchy.ruby_system.m_hitLatencyHistSeqr::bucket_size            1                       (Unspecified)
board.cache_hierarchy.ruby_system.m_hitLatencyHistSeqr::max_bucket            9                       (Unspecified)
board.cache_hierarchy.ruby_system.m_hitLatencyHistSeqr::samples      3538310                       (Unspecified)
board.cache_hierarchy.ruby_system.m_hitLatencyHistSeqr::mean            1                       (Unspecified)
board.cache_hierarchy.ruby_system.m_hitLatencyHistSeqr::gmean            1                       (Unspecified)
board.cache_hierarchy.ruby_system.m_hitLatencyHistSeqr |           0      0.00%      0.00% |     3538310    100.00%    100.00% |           0      0.00%    100.00% |           0      0.00%    100.00% |           0      0.00%    100.00% |           0      0.00%    100.00% |           0      0.00%    100.00% |           0      0.00%    100.00% |           0      0.00%    100.00% |           0      0.00%    100.00% (Unspecified)
board.cache_hierarchy.ruby_system.m_hitLatencyHistSeqr::total      3538310                       (Unspecified)
board.cache_hierarchy.ruby_system.m_missLatencyHistSeqr::bucket_size          256                       (Unspecified)
board.cache_hierarchy.ruby_system.m_missLatencyHistSeqr::max_bucket         2559                       (Unspecified)
board.cache_hierarchy.ruby_system.m_missLatencyHistSeqr::samples         7693                       (Unspecified)
board.cache_hierarchy.ruby_system.m_missLatencyHistSeqr::mean    89.575328                       (Unspecified)
board.cache_hierarchy.ruby_system.m_missLatencyHistSeqr::gmean    38.866141                       (Unspecified)
board.cache_hierarchy.ruby_system.m_missLatencyHistSeqr::stdev   120.852043                       (Unspecified)
board.cache_hierarchy.ruby_system.m_missLatencyHistSeqr |        7324     95.20%     95.20% |         254      3.30%     98.51% |          86      1.12%     99.62% |          26      0.34%     99.96% |           2      0.03%     99.99% |           1      0.01%    100.00% |           0      0.00%    100.00% |           0      0.00%    100.00% |           0      0.00%    100.00% |           0      0.00%    100.00% (Unspecified)
board.cache_hierarchy.ruby_system.m_missLatencyHistSeqr::total         7693                       (Unspecified)
board.cache_hierarchy.ruby_system.delayVCHist.vnet_0::bucket_size          512                       # delay histogram for vnet_0 (Unspecified)
board.cache_hierarchy.ruby_system.delayVCHist.vnet_0::max_bucket         5119                       # delay histogram for vnet_0 (Unspecified)
board.cache_hierarchy.ruby_system.delayVCHist.vnet_0::samples        13419                       # delay histogram for vnet_0 (Unspecified)
board.cache_hierarchy.ruby_system.delayVCHist.vnet_0::mean     2.298905                       # delay histogram for vnet_0 (Unspecified)
board.cache_hierarchy.ruby_system.delayVCHist.vnet_0::stdev    59.674791                       # delay histogram for vnet_0 (Unspecified)
board.cache_hierarchy.ruby_system.delayVCHist.vnet_0 |       13408     99.92%     99.92% |           2      0.01%     99.93% |           2      0.01%     99.95% |           2      0.01%     99.96% |           2      0.01%     99.98% |           2      0.01%     99.99% |           1      0.01%    100.00% |           0      0.00%    100.00% |           0      0.00%    100.00% |           0      0.00%    100.00% # delay histogram for vnet_0 (Unspecified)
board.cache_hierarchy.ruby_system.delayVCHist.vnet_0::total        13419                       # delay histogram for vnet_0 (Unspecified)
board.cache_hierarchy.ruby_system.delayVCHist.vnet_1::bucket_size            4                       # delay histogram for vnet_1 (Unspecified)
board.cache_hierarchy.ruby_system.delayVCHist.vnet_1::max_bucket           39                       # delay histogram for vnet_1 (Unspecified)
board.cache_hierarchy.ruby_system.delayVCHist.vnet_1::samples        17223                       # delay histogram for vnet_1 (Unspecified)
board.cache_hierarchy.ruby_system.delayVCHist.vnet_1::mean     0.735760                       # delay histogram for vnet_1 (Unspecified)
board.cache_hierarchy.ruby_system.delayVCHist.vnet_1::stdev     2.583777                       # delay histogram for vnet_1 (Unspecified)
board.cache_hierarchy.ruby_system.delayVCHist.vnet_1 |       15839     91.96%     91.96% |         504      2.93%     94.89% |         455      2.64%     97.53% |         409      2.37%     99.91% |          15      0.09%     99.99% |           0      0.00%     99.99% |           1      0.01%    100.00% |           0      0.00%    100.00% |           0      0.00%    100.00% |           0      0.00%    100.00% # delay histogram for vnet_1 (Unspecified)
board.cache_hierarchy.ruby_system.delayVCHist.vnet_1::total        17223                       # delay histogram for vnet_1 (Unspecified)
board.cache_hierarchy.ruby_system.delayVCHist.vnet_2::bucket_size            1                       # delay histogram for vnet_2 (Unspecified)
board.cache_hierarchy.ruby_system.delayVCHist.vnet_2::max_bucket            9                       # delay histogram for vnet_2 (Unspecified)
board.cache_hierarchy.ruby_system.delayVCHist.vnet_2::samples         3553                       # delay histogram for vnet_2 (Unspecified)
board.cache_hierarchy.ruby_system.delayVCHist.vnet_2 |        3553    100.00%    100.00% |           0      0.00%    100.00% |           0      0.00%    100.00% |           0      0.00%    100.00% |           0      0.00%    100.00% |           0      0.00%    100.00% |           0      0.00%    100.00% |           0      0.00%    100.00% |           0      0.00%    100.00% |           0      0.00%    100.00% # delay histogram for vnet_2 (Unspecified)
board.cache_hierarchy.ruby_system.delayVCHist.vnet_2::total         3553                       # delay histogram for vnet_2 (Unspecified)
board.cache_hierarchy.ruby_system.Directory_Controller.Fetch         2858      0.00%      0.00% (Unspecified)
board.cache_hierarchy.ruby_system.Directory_Controller.Data         1864      0.00%      0.00% (Unspecified)
board.cache_hierarchy.ruby_system.Directory_Controller.Memory_Data         2858      0.00%      0.00% (Unspecified)
board.cache_hierarchy.ruby_system.Directory_Controller.Memory_Ack         1864      0.00%      0.00% (Unspecified)
board.cache_hierarchy.ruby_system.Directory_Controller.CleanReplacement          994      0.00%      0.00% (Unspecified)
board.cache_hierarchy.ruby_system.Directory_Controller.I.Fetch         2858      0.00%      0.00% (Unspecified)
board.cache_hierarchy.ruby_system.Directory_Controller.M.Data         1864      0.00%      0.00% (Unspecified)
board.cache_hierarchy.ruby_system.Directory_Controller.M.CleanReplacement          994      0.00%      0.00% (Unspecified)
board.cache_hierarchy.ruby_system.Directory_Controller.IM.Memory_Data         2858      0.00%      0.00% (Unspecified)
board.cache_hierarchy.ruby_system.Directory_Controller.MI.Memory_Ack         1864      0.00%      0.00% (Unspecified)
board.cache_hierarchy.ruby_system.L1Cache_Controller.Load |       51778      5.92%      5.92% |       57594      6.58%     12.50% |       58311      6.66%     19.16% |       57702      6.59%     25.76% |       57401      6.56%     32.32% |       56778      6.49%     38.81% |       56589      6.47%     45.28% |       55217      6.31%     51.59% |       55511      6.34%     57.93% |       54930      6.28%     64.21% |       54195      6.19%     70.40% |       53641      6.13%     76.53% |       52723      6.03%     82.56% |       51812      5.92%     88.48% |       50836      5.81%     94.29% |       49939      5.71%    100.00% (Unspecified)
board.cache_hierarchy.ruby_system.L1Cache_Controller.Load::total       874957                       (Unspecified)
board.cache_hierarchy.ruby_system.L1Cache_Controller.Ifetch |      152782      6.14%      6.14% |      165880      6.66%     12.80% |      168541      6.77%     19.57% |      166279      6.68%     26.25% |      165161      6.63%     32.88% |      162847      6.54%     39.42% |      162145      6.51%     45.94% |      157049      6.31%     52.24% |      158141      6.35%     58.60% |      155983      6.27%     64.86% |      153252      6.16%     71.02% |      151192      6.07%     77.09% |      147780      5.94%     83.02% |      144393      5.80%     88.82% |      140774      5.65%     94.48% |      137457      5.52%    100.00% (Unspecified)
board.cache_hierarchy.ruby_system.L1Cache_Controller.Ifetch::total      2489656                       (Unspecified)
board.cache_hierarchy.ruby_system.L1Cache_Controller.Store |       13526      7.46%      7.46% |       11963      6.60%     14.06% |       12167      6.71%     20.77% |       11993      6.61%     27.38% |       11907      6.57%     33.95% |       11729      6.47%     40.42% |       11675      6.44%     46.86% |       11283      6.22%     53.08% |       11367      6.27%     59.35% |       11201      6.18%     65.53% |       10990      6.06%     71.59% |       10832      5.97%     77.56% |       10569      5.83%     83.39% |       10309      5.69%     89.08% |       10031      5.53%     94.61% |        9775      5.39%    100.00% (Unspecified)
board.cache_hierarchy.ruby_system.L1Cache_Controller.Store::total       181317                       (Unspecified)
board.cache_hierarchy.ruby_system.L1Cache_Controller.Inv |         778     24.83%     24.83% |         142      4.53%     29.36% |         141      4.50%     33.87% |         143      4.56%     38.43% |         141      4.50%     42.93% |         142      4.53%     47.46% |         142      4.53%     51.99% |         138      4.40%     56.40% |         161      5.14%     61.54% |         151      4.82%     66.36% |         171      5.46%     71.82% |         165      5.27%     77.08% |         168      5.36%     82.44% |         161      5.14%     87.58% |         184      5.87%     93.46% |         205      6.54%    100.00% (Unspecified)
board.cache_hierarchy.ruby_system.L1Cache_Controller.Inv::total         3133                       (Unspecified)
board.cache_hierarchy.ruby_system.L1Cache_Controller.L1_Replacement |         843    100.00%    100.00% |           0      0.00%    100.00% |           0      0.00%    100.00% |           0      0.00%    100.00% |           0      0.00%    100.00% |           0      0.00%    100.00% |           0      0.00%    100.00% |           0      0.00%    100.00% |           0      0.00%    100.00% |           0      0.00%    100.00% |           0      0.00%    100.00% |           0      0.00%    100.00% |           0      0.00%    100.00% |           0      0.00%    100.00% |           0      0.00%    100.00% |           0      0.00%    100.00% (Unspecified)
board.cache_hierarchy.ruby_system.L1Cache_Controller.L1_Replacement::total          843                       (Unspecified)
board.cache_hierarchy.ruby_system.L1Cache_Controller.Fwd_GETX |          81     54.73%     54.73% |           4      2.70%     57.43% |           5      3.38%     60.81% |           5      3.38%     64.19% |           5      3.38%     67.57% |           4      2.70%     70.27% |           5      3.38%     73.65% |           4      2.70%     76.35% |           5      3.38%     79.73% |           5      3.38%     83.11% |           5      3.38%     86.49% |           5      3.38%     89.86% |           5      3.38%     93.24% |           4      2.70%     95.95% |           5      3.38%     99.32% |           1      0.68%    100.00% (Unspecified)
board.cache_hierarchy.ruby_system.L1Cache_Controller.Fwd_GETX::total          148                       (Unspecified)
board.cache_hierarchy.ruby_system.L1Cache_Controller.Fwd_GETS |         246     90.44%     90.44% |          10      3.68%     94.12% |           1      0.37%     94.49% |           1      0.37%     94.85% |           1      0.37%     95.22% |           1      0.37%     95.59% |           1      0.37%     95.96% |           1      0.37%     96.32% |           1      0.37%     96.69% |           1      0.37%     97.06% |           1      0.37%     97.43% |           1      0.37%     97.79% |           1      0.37%     98.16% |           1      0.37%     98.53% |           1      0.37%     98.90% |           3      1.10%    100.00% (Unspecified)
board.cache_hierarchy.ruby_system.L1Cache_Controller.Fwd_GETS::total          272                       (Unspecified)
board.cache_hierarchy.ruby_system.L1Cache_Controller.Data_Exclusive |         303      7.33%      7.33% |         272      6.58%     13.92% |         261      6.32%     20.24% |         263      6.37%     26.60% |         261      6.32%     32.92% |         263      6.37%     39.29% |         263      6.37%     45.65% |         263      6.37%     52.02% |         266      6.44%     58.46% |         262      6.34%     64.80% |         263      6.37%     71.17% |         263      6.37%     77.54% |         263      6.37%     83.90% |         262      6.34%     90.24% |         261      6.32%     96.56% |         142      3.44%    100.00% (Unspecified)
board.cache_hierarchy.ruby_system.L1Cache_Controller.Data_Exclusive::total         4131                       (Unspecified)
board.cache_hierarchy.ruby_system.L1Cache_Controller.DataS_fromL1 |           3      1.10%      1.10% |          28     10.29%     11.40% |          14      5.15%     16.54% |           8      2.94%     19.49% |           8      2.94%     22.43% |           8      2.94%     25.37% |           8      2.94%     28.31% |           8      2.94%     31.25% |           8      2.94%     34.19% |           8      2.94%     37.13% |           8      2.94%     40.07% |           7      2.57%     42.65% |           8      2.94%     45.59% |          10      3.68%     49.26% |           8      2.94%     52.21% |         130     47.79%    100.00% (Unspecified)
board.cache_hierarchy.ruby_system.L1Cache_Controller.DataS_fromL1::total          272                       (Unspecified)
board.cache_hierarchy.ruby_system.L1Cache_Controller.Data_all_Acks |         640     19.74%     19.74% |         151      4.66%     24.40% |         170      5.24%     29.64% |         176      5.43%     35.07% |         176      5.43%     40.50% |         175      5.40%     45.90% |         175      5.40%     51.30% |         175      5.40%     56.69% |         175      5.40%     62.09% |         176      5.43%     67.52% |         177      5.46%     72.98% |         176      5.43%     78.41% |         176      5.43%     83.84% |         174      5.37%     89.20% |         177      5.46%     94.66% |         173      5.34%    100.00% (Unspecified)
board.cache_hierarchy.ruby_system.L1Cache_Controller.Data_all_Acks::total         3242                       (Unspecified)
board.cache_hierarchy.ruby_system.L1Cache_Controller.Ack |          14     18.92%     18.92% |          17     22.97%     41.89% |           2      2.70%     44.59% |           2      2.70%     47.30% |           2      2.70%     50.00% |           2      2.70%     52.70% |           2      2.70%     55.41% |           2      2.70%     58.11% |           2      2.70%     60.81% |           2      2.70%     63.51% |           2      2.70%     66.22% |           2      2.70%     68.92% |           2      2.70%     71.62% |           2      2.70%     74.32% |           2      2.70%     77.03% |          17     22.97%    100.00% (Unspecified)
board.cache_hierarchy.ruby_system.L1Cache_Controller.Ack::total           74                       (Unspecified)
board.cache_hierarchy.ruby_system.L1Cache_Controller.Ack_all |          14     30.43%     30.43% |           3      6.52%     36.96% |           2      4.35%     41.30% |           2      4.35%     45.65% |           2      4.35%     50.00% |           2      4.35%     54.35% |           2      4.35%     58.70% |           2      4.35%     63.04% |           2      4.35%     67.39% |           2      4.35%     71.74% |           2      4.35%     76.09% |           2      4.35%     80.43% |           2      4.35%     84.78% |           2      4.35%     89.13% |           2      4.35%     93.48% |           3      6.52%    100.00% (Unspecified)
board.cache_hierarchy.ruby_system.L1Cache_Controller.Ack_all::total           46                       (Unspecified)
board.cache_hierarchy.ruby_system.L1Cache_Controller.WB_Ack |         409    100.00%    100.00% |           0      0.00%    100.00% |           0      0.00%    100.00% |           0      0.00%    100.00% |           0      0.00%    100.00% |           0      0.00%    100.00% |           0      0.00%    100.00% |           0      0.00%    100.00% |           0      0.00%    100.00% |           0      0.00%    100.00% |           0      0.00%    100.00% |           0      0.00%    100.00% |           0      0.00%    100.00% |           0      0.00%    100.00% |           0      0.00%    100.00% |           0      0.00%    100.00% (Unspecified)
board.cache_hierarchy.ruby_system.L1Cache_Controller.WB_Ack::total          409                       (Unspecified)
board.cache_hierarchy.ruby_system.L1Cache_Controller.Load_Linked |          73    100.00%    100.00% |           0      0.00%    100.00% |           0      0.00%    100.00% |           0      0.00%    100.00% |           0      0.00%    100.00% |           0      0.00%    100.00% |           0      0.00%    100.00% |           0      0.00%    100.00% |           0      0.00%    100.00% |           0      0.00%    100.00% |           0      0.00%    100.00% |           0      0.00%    100.00% |           0      0.00%    100.00% |           0      0.00%    100.00% |           0      0.00%    100.00% |           0      0.00%    100.00% (Unspecified)
board.cache_hierarchy.ruby_system.L1Cache_Controller.Load_Linked::total           73                       (Unspecified)
board.cache_hierarchy.ruby_system.L1Cache_Controller.LLSC_Data_all_Acks |           2    100.00%    100.00% |           0      0.00%    100.00% |           0      0.00%    100.00% |           0      0.00%    100.00% |           0      0.00%    100.00% |           0      0.00%    100.00% |           0      0.00%    100.00% |           0      0.00%    100.00% |           0      0.00%    100.00% |           0      0.00%    100.00% |           0      0.00%    100.00% |           0      0.00%    100.00% |           0      0.00%    100.00% |           0      0.00%    100.00% |           0      0.00%    100.00% |           0      0.00%    100.00% (Unspecified)
board.cache_hierarchy.ruby_system.L1Cache_Controller.LLSC_Data_all_Acks::total            2                       (Unspecified)
board.cache_hierarchy.ruby_system.L1Cache_Controller.LLSC_Timeout |          73    100.00%    100.00% |           0      0.00%    100.00% |           0      0.00%    100.00% |           0      0.00%    100.00% |           0      0.00%    100.00% |           0      0.00%    100.00% |           0      0.00%    100.00% |           0      0.00%    100.00% |           0      0.00%    100.00% |           0      0.00%    100.00% |           0      0.00%    100.00% |           0      0.00%    100.00% |           0      0.00%    100.00% |           0      0.00%    100.00% |           0      0.00%    100.00% |           0      0.00%    100.00% (Unspecified)
board.cache_hierarchy.ruby_system.L1Cache_Controller.LLSC_Timeout::total           73                       (Unspecified)
board.cache_hierarchy.ruby_system.L1Cache_Controller.NP.Load |         297      6.33%      6.33% |         294      6.26%     12.59% |         293      6.24%     18.83% |         293      6.24%     25.07% |         293      6.24%     31.32% |         293      6.24%     37.56% |         293      6.24%     43.80% |         293      6.24%     50.04% |         293      6.24%     56.28% |         293      6.24%     62.53% |         293      6.24%     68.77% |         293      6.24%     75.01% |         293      6.24%     81.25% |         293      6.24%     87.49% |         293      6.24%     93.74% |         294      6.26%    100.00% (Unspecified)
board.cache_hierarchy.ruby_system.L1Cache_Controller.NP.Load::total         4694                       (Unspecified)
board.cache_hierarchy.ruby_system.L1Cache_Controller.NP.Ifetch |         207     12.30%     12.30% |         101      6.00%     18.30% |          98      5.82%     24.12% |          98      5.82%     29.95% |          98      5.82%     35.77% |          98      5.82%     41.59% |          98      5.82%     47.42% |          98      5.82%     53.24% |          98      5.82%     59.06% |          98      5.82%     64.88% |          98      5.82%     70.71% |          98      5.82%     76.53% |          98      5.82%     82.35% |          98      5.82%     88.18% |          98      5.82%     94.00% |         101      6.00%    100.00% (Unspecified)
board.cache_hierarchy.ruby_system.L1Cache_Controller.NP.Ifetch::total         1683                       (Unspecified)
board.cache_hierarchy.ruby_system.L1Cache_Controller.NP.Store |         386     47.83%     47.83% |          29      3.59%     51.43% |          28      3.47%     54.89% |          28      3.47%     58.36% |          28      3.47%     61.83% |          28      3.47%     65.30% |          28      3.47%     68.77% |          28      3.47%     72.24% |          28      3.47%     75.71% |          28      3.47%     79.18% |          28      3.47%     82.65% |          28      3.47%     86.12% |          28      3.47%     89.59% |          28      3.47%     93.06% |          28      3.47%     96.53% |          28      3.47%    100.00% (Unspecified)
board.cache_hierarchy.ruby_system.L1Cache_Controller.NP.Store::total          807                       (Unspecified)
board.cache_hierarchy.ruby_system.L1Cache_Controller.NP.Inv |         105    100.00%    100.00% |           0      0.00%    100.00% |           0      0.00%    100.00% |           0      0.00%    100.00% |           0      0.00%    100.00% |           0      0.00%    100.00% |           0      0.00%    100.00% |           0      0.00%    100.00% |           0      0.00%    100.00% |           0      0.00%    100.00% |           0      0.00%    100.00% |           0      0.00%    100.00% |           0      0.00%    100.00% |           0      0.00%    100.00% |           0      0.00%    100.00% |           0      0.00%    100.00% (Unspecified)
board.cache_hierarchy.ruby_system.L1Cache_Controller.NP.Inv::total          105                       (Unspecified)
board.cache_hierarchy.ruby_system.L1Cache_Controller.NP.Load_Linked |           2    100.00%    100.00% |           0      0.00%    100.00% |           0      0.00%    100.00% |           0      0.00%    100.00% |           0      0.00%    100.00% |           0      0.00%    100.00% |           0      0.00%    100.00% |           0      0.00%    100.00% |           0      0.00%    100.00% |           0      0.00%    100.00% |           0      0.00%    100.00% |           0      0.00%    100.00% |           0      0.00%    100.00% |           0      0.00%    100.00% |           0      0.00%    100.00% |           0      0.00%    100.00% (Unspecified)
board.cache_hierarchy.ruby_system.L1Cache_Controller.NP.Load_Linked::total            2                       (Unspecified)
board.cache_hierarchy.ruby_system.L1Cache_Controller.I.Load |          17      9.04%      9.04% |          13      6.91%     15.96% |          10      5.32%     21.28% |          12      6.38%     27.66% |          10      5.32%     32.98% |          12      6.38%     39.36% |          12      6.38%     45.74% |          12      6.38%     52.13% |          15      7.98%     60.11% |          11      5.85%     65.96% |          12      6.38%     72.34% |          11      5.85%     78.19% |          12      6.38%     84.57% |          11      5.85%     90.43% |          10      5.32%     95.74% |           8      4.26%    100.00% (Unspecified)
board.cache_hierarchy.ruby_system.L1Cache_Controller.I.Load::total          188                       (Unspecified)
board.cache_hierarchy.ruby_system.L1Cache_Controller.I.Ifetch |          35     16.36%     16.36% |          12      5.61%     21.96% |          12      5.61%     27.57% |          12      5.61%     33.18% |          12      5.61%     38.79% |          12      5.61%     44.39% |          12      5.61%     50.00% |          12      5.61%     55.61% |          12      5.61%     61.21% |          12      5.61%     66.82% |          12      5.61%     72.43% |          12      5.61%     78.04% |          12      5.61%     83.64% |          12      5.61%     89.25% |          12      5.61%     94.86% |          11      5.14%    100.00% (Unspecified)
board.cache_hierarchy.ruby_system.L1Cache_Controller.I.Ifetch::total          214                       (Unspecified)
board.cache_hierarchy.ruby_system.L1Cache_Controller.I.Store |           4      6.78%      6.78% |           2      3.39%     10.17% |           4      6.78%     16.95% |           4      6.78%     23.73% |           4      6.78%     30.51% |           3      5.08%     35.59% |           3      5.08%     40.68% |           3      5.08%     45.76% |           3      5.08%     50.85% |           4      6.78%     57.63% |           5      8.47%     66.10% |           4      6.78%     72.88% |           4      6.78%     79.66% |           4      6.78%     86.44% |           5      8.47%     94.92% |           3      5.08%    100.00% (Unspecified)
board.cache_hierarchy.ruby_system.L1Cache_Controller.I.Store::total           59                       (Unspecified)
board.cache_hierarchy.ruby_system.L1Cache_Controller.I.L1_Replacement |         260    100.00%    100.00% |           0      0.00%    100.00% |           0      0.00%    100.00% |           0      0.00%    100.00% |           0      0.00%    100.00% |           0      0.00%    100.00% |           0      0.00%    100.00% |           0      0.00%    100.00% |           0      0.00%    100.00% |           0      0.00%    100.00% |           0      0.00%    100.00% |           0      0.00%    100.00% |           0      0.00%    100.00% |           0      0.00%    100.00% |           0      0.00%    100.00% |           0      0.00%    100.00% (Unspecified)
board.cache_hierarchy.ruby_system.L1Cache_Controller.I.L1_Replacement::total          260                       (Unspecified)
board.cache_hierarchy.ruby_system.L1Cache_Controller.S.Load |        4483      5.04%      5.04% |        5880      6.61%     11.65% |        6001      6.75%     18.39% |        5914      6.65%     25.04% |        5871      6.60%     31.64% |        5782      6.50%     38.14% |        5755      6.47%     44.61% |        5559      6.25%     50.86% |        5601      6.30%     57.15% |        5518      6.20%     63.36% |        5413      6.08%     69.44% |        5327      5.99%     75.43% |        5203      5.85%     81.28% |        5073      5.70%     86.98% |        4933      5.55%     92.53% |        6649      7.47%    100.00% (Unspecified)
board.cache_hierarchy.ruby_system.L1Cache_Controller.S.Load::total        88962                       (Unspecified)
board.cache_hierarchy.ruby_system.L1Cache_Controller.S.Ifetch |      152540      6.13%      6.13% |      165767      6.66%     12.79% |      168431      6.77%     19.57% |      166169      6.68%     26.24% |      165051      6.63%     32.88% |      162737      6.54%     39.42% |      162035      6.51%     45.93% |      156939      6.31%     52.24% |      158031      6.35%     58.59% |      155873      6.27%     64.86% |      153142      6.16%     71.02% |      151082      6.07%     77.09% |      147670      5.94%     83.03% |      144283      5.80%     88.82% |      140664      5.65%     94.48% |      137345      5.52%    100.00% (Unspecified)
board.cache_hierarchy.ruby_system.L1Cache_Controller.S.Ifetch::total      2487759                       (Unspecified)
board.cache_hierarchy.ruby_system.L1Cache_Controller.S.Store |          14     30.43%     30.43% |           3      6.52%     36.96% |           2      4.35%     41.30% |           2      4.35%     45.65% |           2      4.35%     50.00% |           2      4.35%     54.35% |           2      4.35%     58.70% |           2      4.35%     63.04% |           2      4.35%     67.39% |           2      4.35%     71.74% |           2      4.35%     76.09% |           2      4.35%     80.43% |           2      4.35%     84.78% |           2      4.35%     89.13% |           2      4.35%     93.48% |           3      6.52%    100.00% (Unspecified)
board.cache_hierarchy.ruby_system.L1Cache_Controller.S.Store::total           46                       (Unspecified)
board.cache_hierarchy.ruby_system.L1Cache_Controller.S.Inv |         430     19.77%     19.77% |         114      5.24%     25.01% |         115      5.29%     30.30% |         115      5.29%     35.59% |         115      5.29%     40.87% |         114      5.24%     46.11% |         115      5.29%     51.40% |         113      5.20%     56.60% |         114      5.24%     61.84% |         115      5.29%     67.13% |         115      5.29%     72.41% |         113      5.20%     77.61% |         115      5.29%     82.90% |         115      5.29%     88.18% |         115      5.29%     93.47% |         142      6.53%    100.00% (Unspecified)
board.cache_hierarchy.ruby_system.L1Cache_Controller.S.Inv::total         2175                       (Unspecified)
board.cache_hierarchy.ruby_system.L1Cache_Controller.S.L1_Replacement |         174    100.00%    100.00% |           0      0.00%    100.00% |           0      0.00%    100.00% |           0      0.00%    100.00% |           0      0.00%    100.00% |           0      0.00%    100.00% |           0      0.00%    100.00% |           0      0.00%    100.00% |           0      0.00%    100.00% |           0      0.00%    100.00% |           0      0.00%    100.00% |           0      0.00%    100.00% |           0      0.00%    100.00% |           0      0.00%    100.00% |           0      0.00%    100.00% |           0      0.00%    100.00% (Unspecified)
board.cache_hierarchy.ruby_system.L1Cache_Controller.S.L1_Replacement::total          174                       (Unspecified)
board.cache_hierarchy.ruby_system.L1Cache_Controller.E.Load |        5645      5.41%      5.41% |       10710     10.26%     15.67% |        3838      3.68%     19.35% |        8751      8.39%     27.74% |        4706      4.51%     32.24% |        8767      8.40%     40.65% |        4444      4.26%     44.90% |        8598      8.24%     53.14% |        4566      4.38%     57.52% |        8612      8.25%     65.77% |        4183      4.01%     69.78% |        8483      8.13%     77.91% |        3935      3.77%     81.68% |        8464      8.11%     89.79% |        4073      3.90%     93.69% |        6583      6.31%    100.00% (Unspecified)
board.cache_hierarchy.ruby_system.L1Cache_Controller.E.Load::total       104358                       (Unspecified)
board.cache_hierarchy.ruby_system.L1Cache_Controller.E.Store |          19     28.79%     28.79% |           3      4.55%     33.33% |           2      3.03%     36.36% |           4      6.06%     42.42% |           2      3.03%     45.45% |           4      6.06%     51.52% |           4      6.06%     57.58% |           4      6.06%     63.64% |           4      6.06%     69.70% |           3      4.55%     74.24% |           2      3.03%     77.27% |           3      4.55%     81.82% |           3      4.55%     86.36% |           3      4.55%     90.91% |           2      3.03%     93.94% |           4      6.06%    100.00% (Unspecified)
board.cache_hierarchy.ruby_system.L1Cache_Controller.E.Store::total           66                       (Unspecified)
board.cache_hierarchy.ruby_system.L1Cache_Controller.E.Inv |          98     32.03%     32.03% |           2      0.65%     32.68% |           0      0.00%     32.68% |           0      0.00%     32.68% |           0      0.00%     32.68% |           0      0.00%     32.68% |           0      0.00%     32.68% |           0      0.00%     32.68% |          20      6.54%     39.22% |           9      2.94%     42.16% |          29      9.48%     51.63% |          25      8.17%     59.80% |          27      8.82%     68.63% |          18      5.88%     74.51% |          42     13.73%     88.24% |          36     11.76%    100.00% (Unspecified)
board.cache_hierarchy.ruby_system.L1Cache_Controller.E.Inv::total          306                       (Unspecified)
board.cache_hierarchy.ruby_system.L1Cache_Controller.E.L1_Replacement |           7    100.00%    100.00% |           0      0.00%    100.00% |           0      0.00%    100.00% |           0      0.00%    100.00% |           0      0.00%    100.00% |           0      0.00%    100.00% |           0      0.00%    100.00% |           0      0.00%    100.00% |           0      0.00%    100.00% |           0      0.00%    100.00% |           0      0.00%    100.00% |           0      0.00%    100.00% |           0      0.00%    100.00% |           0      0.00%    100.00% |           0      0.00%    100.00% |           0      0.00%    100.00% (Unspecified)
board.cache_hierarchy.ruby_system.L1Cache_Controller.E.L1_Replacement::total            7                       (Unspecified)
board.cache_hierarchy.ruby_system.L1Cache_Controller.E.Fwd_GETS |          12     34.29%     34.29% |           8     22.86%     57.14% |           1      2.86%     60.00% |           1      2.86%     62.86% |           1      2.86%     65.71% |           1      2.86%     68.57% |           1      2.86%     71.43% |           1      2.86%     74.29% |           1      2.86%     77.14% |           1      2.86%     80.00% |           1      2.86%     82.86% |           1      2.86%     85.71% |           1      2.86%     88.57% |           1      2.86%     91.43% |           1      2.86%     94.29% |           2      5.71%    100.00% (Unspecified)
board.cache_hierarchy.ruby_system.L1Cache_Controller.E.Fwd_GETS::total           35                       (Unspecified)
board.cache_hierarchy.ruby_system.L1Cache_Controller.E.Load_Linked |           1    100.00%    100.00% |           0      0.00%    100.00% |           0      0.00%    100.00% |           0      0.00%    100.00% |           0      0.00%    100.00% |           0      0.00%    100.00% |           0      0.00%    100.00% |           0      0.00%    100.00% |           0      0.00%    100.00% |           0      0.00%    100.00% |           0      0.00%    100.00% |           0      0.00%    100.00% |           0      0.00%    100.00% |           0      0.00%    100.00% |           0      0.00%    100.00% |           0      0.00%    100.00% (Unspecified)
board.cache_hierarchy.ruby_system.L1Cache_Controller.E.Load_Linked::total            1                       (Unspecified)
board.cache_hierarchy.ruby_system.L1Cache_Controller.M.Load |       41336      6.11%      6.11% |       40697      6.01%     12.12% |       48169      7.12%     19.24% |       42732      6.31%     25.55% |       46521      6.87%     32.43% |       41924      6.19%     38.62% |       46085      6.81%     45.43% |       40755      6.02%     51.45% |       45036      6.65%     58.11% |       40496      5.98%     64.09% |       44294      6.55%     70.64% |       39527      5.84%     76.48% |       43280      6.40%     82.87% |       37971      5.61%     88.48% |       41527      6.14%     94.62% |       36405      5.38%    100.00% (Unspecified)
board.cache_hierarchy.ruby_system.L1Cache_Controller.M.Load::total       676755                       (Unspecified)
board.cache_hierarchy.ruby_system.L1Cache_Controller.M.Store |       13031      7.23%      7.23% |       11926      6.62%     13.84% |       12131      6.73%     20.57% |       11955      6.63%     27.21% |       11871      6.59%     33.79% |       11692      6.49%     40.28% |       11638      6.46%     46.73% |       11246      6.24%     52.97% |       11330      6.29%     59.26% |       11164      6.19%     65.45% |       10953      6.08%     71.53% |       10795      5.99%     77.51% |       10532      5.84%     83.36% |       10272      5.70%     89.05% |        9994      5.54%     94.60% |        9737      5.40%    100.00% (Unspecified)
board.cache_hierarchy.ruby_system.L1Cache_Controller.M.Store::total       180267                       (Unspecified)
board.cache_hierarchy.ruby_system.L1Cache_Controller.M.Inv |         145     26.51%     26.51% |          26      4.75%     31.26% |          26      4.75%     36.01% |          28      5.12%     41.13% |          26      4.75%     45.89% |          28      5.12%     51.01% |          27      4.94%     55.94% |          25      4.57%     60.51% |          27      4.94%     65.45% |          27      4.94%     70.38% |          27      4.94%     75.32% |          27      4.94%     80.26% |          26      4.75%     85.01% |          28      5.12%     90.13% |          27      4.94%     95.06% |          27      4.94%    100.00% (Unspecified)
board.cache_hierarchy.ruby_system.L1Cache_Controller.M.Inv::total          547                       (Unspecified)
board.cache_hierarchy.ruby_system.L1Cache_Controller.M.L1_Replacement |         402    100.00%    100.00% |           0      0.00%    100.00% |           0      0.00%    100.00% |           0      0.00%    100.00% |           0      0.00%    100.00% |           0      0.00%    100.00% |           0      0.00%    100.00% |           0      0.00%    100.00% |           0      0.00%    100.00% |           0      0.00%    100.00% |           0      0.00%    100.00% |           0      0.00%    100.00% |           0      0.00%    100.00% |           0      0.00%    100.00% |           0      0.00%    100.00% |           0      0.00%    100.00% (Unspecified)
board.cache_hierarchy.ruby_system.L1Cache_Controller.M.L1_Replacement::total          402                       (Unspecified)
board.cache_hierarchy.ruby_system.L1Cache_Controller.M.Fwd_GETX |          81     54.73%     54.73% |           4      2.70%     57.43% |           5      3.38%     60.81% |           5      3.38%     64.19% |           5      3.38%     67.57% |           4      2.70%     70.27% |           5      3.38%     73.65% |           4      2.70%     76.35% |           5      3.38%     79.73% |           5      3.38%     83.11% |           5      3.38%     86.49% |           5      3.38%     89.86% |           5      3.38%     93.24% |           4      2.70%     95.95% |           5      3.38%     99.32% |           1      0.68%    100.00% (Unspecified)
board.cache_hierarchy.ruby_system.L1Cache_Controller.M.Fwd_GETX::total          148                       (Unspecified)
board.cache_hierarchy.ruby_system.L1Cache_Controller.M.Fwd_GETS |         234     98.73%     98.73% |           2      0.84%     99.58% |           0      0.00%     99.58% |           0      0.00%     99.58% |           0      0.00%     99.58% |           0      0.00%     99.58% |           0      0.00%     99.58% |           0      0.00%     99.58% |           0      0.00%     99.58% |           0      0.00%     99.58% |           0      0.00%     99.58% |           0      0.00%     99.58% |           0      0.00%     99.58% |           0      0.00%     99.58% |           0      0.00%     99.58% |           1      0.42%    100.00% (Unspecified)
board.cache_hierarchy.ruby_system.L1Cache_Controller.M.Fwd_GETS::total          237                       (Unspecified)
board.cache_hierarchy.ruby_system.L1Cache_Controller.M.Load_Linked |          70    100.00%    100.00% |           0      0.00%    100.00% |           0      0.00%    100.00% |           0      0.00%    100.00% |           0      0.00%    100.00% |           0      0.00%    100.00% |           0      0.00%    100.00% |           0      0.00%    100.00% |           0      0.00%    100.00% |           0      0.00%    100.00% |           0      0.00%    100.00% |           0      0.00%    100.00% |           0      0.00%    100.00% |           0      0.00%    100.00% |           0      0.00%    100.00% |           0      0.00%    100.00% (Unspecified)
board.cache_hierarchy.ruby_system.L1Cache_Controller.M.Load_Linked::total           70                       (Unspecified)
board.cache_hierarchy.ruby_system.L1Cache_Controller.IS.Data_Exclusive |         303      7.33%      7.33% |         272      6.58%     13.92% |         261      6.32%     20.24% |         263      6.37%     26.60% |         261      6.32%     32.92% |         263      6.37%     39.29% |         263      6.37%     45.65% |         263      6.37%     52.02% |         266      6.44%     58.46% |         262      6.34%     64.80% |         263      6.37%     71.17% |         263      6.37%     77.54% |         263      6.37%     83.90% |         262      6.34%     90.24% |         261      6.32%     96.56% |         142      3.44%    100.00% (Unspecified)
board.cache_hierarchy.ruby_system.L1Cache_Controller.IS.Data_Exclusive::total         4131                       (Unspecified)
board.cache_hierarchy.ruby_system.L1Cache_Controller.IS.DataS_fromL1 |           3      1.10%      1.10% |          28     10.29%     11.40% |          14      5.15%     16.54% |           8      2.94%     19.49% |           8      2.94%     22.43% |           8      2.94%     25.37% |           8      2.94%     28.31% |           8      2.94%     31.25% |           8      2.94%     34.19% |           8      2.94%     37.13% |           8      2.94%     40.07% |           7      2.57%     42.65% |           8      2.94%     45.59% |          10      3.68%     49.26% |           8      2.94%     52.21% |         130     47.79%    100.00% (Unspecified)
board.cache_hierarchy.ruby_system.L1Cache_Controller.IS.DataS_fromL1::total          272                       (Unspecified)
board.cache_hierarchy.ruby_system.L1Cache_Controller.IS.Data_all_Acks |         250     10.52%     10.52% |         120      5.05%     15.57% |         138      5.81%     21.38% |         144      6.06%     27.44% |         144      6.06%     33.50% |         144      6.06%     39.56% |         144      6.06%     45.62% |         144      6.06%     51.68% |         144      6.06%     57.74% |         144      6.06%     63.80% |         144      6.06%     69.87% |         144      6.06%     75.93% |         144      6.06%     81.99% |         142      5.98%     87.96% |         144      6.06%     94.02% |         142      5.98%    100.00% (Unspecified)
board.cache_hierarchy.ruby_system.L1Cache_Controller.IS.Data_all_Acks::total         2376                       (Unspecified)
board.cache_hierarchy.ruby_system.L1Cache_Controller.IM.Data_all_Acks |         390     45.03%     45.03% |          31      3.58%     48.61% |          32      3.70%     52.31% |          32      3.70%     56.00% |          32      3.70%     59.70% |          31      3.58%     63.28% |          31      3.58%     66.86% |          31      3.58%     70.44% |          31      3.58%     74.02% |          32      3.70%     77.71% |          33      3.81%     81.52% |          32      3.70%     85.22% |          32      3.70%     88.91% |          32      3.70%     92.61% |          33      3.81%     96.42% |          31      3.58%    100.00% (Unspecified)
board.cache_hierarchy.ruby_system.L1Cache_Controller.IM.Data_all_Acks::total          866                       (Unspecified)
board.cache_hierarchy.ruby_system.L1Cache_Controller.IM.LLSC_Data_all_Acks |           2    100.00%    100.00% |           0      0.00%    100.00% |           0      0.00%    100.00% |           0      0.00%    100.00% |           0      0.00%    100.00% |           0      0.00%    100.00% |           0      0.00%    100.00% |           0      0.00%    100.00% |           0      0.00%    100.00% |           0      0.00%    100.00% |           0      0.00%    100.00% |           0      0.00%    100.00% |           0      0.00%    100.00% |           0      0.00%    100.00% |           0      0.00%    100.00% |           0      0.00%    100.00% (Unspecified)
board.cache_hierarchy.ruby_system.L1Cache_Controller.IM.LLSC_Data_all_Acks::total            2                       (Unspecified)
board.cache_hierarchy.ruby_system.L1Cache_Controller.SM.Ack |          14     18.92%     18.92% |          17     22.97%     41.89% |           2      2.70%     44.59% |           2      2.70%     47.30% |           2      2.70%     50.00% |           2      2.70%     52.70% |           2      2.70%     55.41% |           2      2.70%     58.11% |           2      2.70%     60.81% |           2      2.70%     63.51% |           2      2.70%     66.22% |           2      2.70%     68.92% |           2      2.70%     71.62% |           2      2.70%     74.32% |           2      2.70%     77.03% |          17     22.97%    100.00% (Unspecified)
board.cache_hierarchy.ruby_system.L1Cache_Controller.SM.Ack::total           74                       (Unspecified)
board.cache_hierarchy.ruby_system.L1Cache_Controller.SM.Ack_all |          14     30.43%     30.43% |           3      6.52%     36.96% |           2      4.35%     41.30% |           2      4.35%     45.65% |           2      4.35%     50.00% |           2      4.35%     54.35% |           2      4.35%     58.70% |           2      4.35%     63.04% |           2      4.35%     67.39% |           2      4.35%     71.74% |           2      4.35%     76.09% |           2      4.35%     80.43% |           2      4.35%     84.78% |           2      4.35%     89.13% |           2      4.35%     93.48% |           3      6.52%    100.00% (Unspecified)
board.cache_hierarchy.ruby_system.L1Cache_Controller.SM.Ack_all::total           46                       (Unspecified)
board.cache_hierarchy.ruby_system.L1Cache_Controller.M_I.WB_Ack |         409    100.00%    100.00% |           0      0.00%    100.00% |           0      0.00%    100.00% |           0      0.00%    100.00% |           0      0.00%    100.00% |           0      0.00%    100.00% |           0      0.00%    100.00% |           0      0.00%    100.00% |           0      0.00%    100.00% |           0      0.00%    100.00% |           0      0.00%    100.00% |           0      0.00%    100.00% |           0      0.00%    100.00% |           0      0.00%    100.00% |           0      0.00%    100.00% |           0      0.00%    100.00% (Unspecified)
board.cache_hierarchy.ruby_system.L1Cache_Controller.M_I.WB_Ack::total          409                       (Unspecified)
board.cache_hierarchy.ruby_system.L1Cache_Controller.LLSC_E.Store |           2    100.00%    100.00% |           0      0.00%    100.00% |           0      0.00%    100.00% |           0      0.00%    100.00% |           0      0.00%    100.00% |           0      0.00%    100.00% |           0      0.00%    100.00% |           0      0.00%    100.00% |           0      0.00%    100.00% |           0      0.00%    100.00% |           0      0.00%    100.00% |           0      0.00%    100.00% |           0      0.00%    100.00% |           0      0.00%    100.00% |           0      0.00%    100.00% |           0      0.00%    100.00% (Unspecified)
board.cache_hierarchy.ruby_system.L1Cache_Controller.LLSC_E.Store::total            2                       (Unspecified)
board.cache_hierarchy.ruby_system.L1Cache_Controller.LLSC_E.LLSC_Timeout |           1    100.00%    100.00% |           0      0.00%    100.00% |           0      0.00%    100.00% |           0      0.00%    100.00% |           0      0.00%    100.00% |           0      0.00%    100.00% |           0      0.00%    100.00% |           0      0.00%    100.00% |           0      0.00%    100.00% |           0      0.00%    100.00% |           0      0.00%    100.00% |           0      0.00%    100.00% |           0      0.00%    100.00% |           0      0.00%    100.00% |           0      0.00%    100.00% |           0      0.00%    100.00% (Unspecified)
board.cache_hierarchy.ruby_system.L1Cache_Controller.LLSC_E.LLSC_Timeout::total            1                       (Unspecified)
board.cache_hierarchy.ruby_system.L1Cache_Controller.LLSC_M.Store |          70    100.00%    100.00% |           0      0.00%    100.00% |           0      0.00%    100.00% |           0      0.00%    100.00% |           0      0.00%    100.00% |           0      0.00%    100.00% |           0      0.00%    100.00% |           0      0.00%    100.00% |           0      0.00%    100.00% |           0      0.00%    100.00% |           0      0.00%    100.00% |           0      0.00%    100.00% |           0      0.00%    100.00% |           0      0.00%    100.00% |           0      0.00%    100.00% |           0      0.00%    100.00% (Unspecified)
board.cache_hierarchy.ruby_system.L1Cache_Controller.LLSC_M.Store::total           70                       (Unspecified)
board.cache_hierarchy.ruby_system.L1Cache_Controller.LLSC_M.LLSC_Timeout |          72    100.00%    100.00% |           0      0.00%    100.00% |           0      0.00%    100.00% |           0      0.00%    100.00% |           0      0.00%    100.00% |           0      0.00%    100.00% |           0      0.00%    100.00% |           0      0.00%    100.00% |           0      0.00%    100.00% |           0      0.00%    100.00% |           0      0.00%    100.00% |           0      0.00%    100.00% |           0      0.00%    100.00% |           0      0.00%    100.00% |           0      0.00%    100.00% |           0      0.00%    100.00% (Unspecified)
board.cache_hierarchy.ruby_system.L1Cache_Controller.LLSC_M.LLSC_Timeout::total           72                       (Unspecified)
board.cache_hierarchy.ruby_system.L2Cache_Controller.L1_GET_INSTR         1915      0.00%      0.00% (Unspecified)
board.cache_hierarchy.ruby_system.L2Cache_Controller.L1_GETS         4947      0.00%      0.00% (Unspecified)
board.cache_hierarchy.ruby_system.L2Cache_Controller.L1_GETX          991      0.00%      0.00% (Unspecified)
board.cache_hierarchy.ruby_system.L2Cache_Controller.L1_UPGRADE           46      0.00%      0.00% (Unspecified)
board.cache_hierarchy.ruby_system.L2Cache_Controller.L1_PUTX          409      0.00%      0.00% (Unspecified)
board.cache_hierarchy.ruby_system.L2Cache_Controller.L2_Replacement         1360      0.00%      0.00% (Unspecified)
board.cache_hierarchy.ruby_system.L2Cache_Controller.L2_Replacement_clean         1498      0.00%      0.00% (Unspecified)
board.cache_hierarchy.ruby_system.L2Cache_Controller.Mem_Data         2858      0.00%      0.00% (Unspecified)
board.cache_hierarchy.ruby_system.L2Cache_Controller.Mem_Ack         2858      0.00%      0.00% (Unspecified)
board.cache_hierarchy.ruby_system.L2Cache_Controller.WB_Data          784      0.00%      0.00% (Unspecified)
board.cache_hierarchy.ruby_system.L2Cache_Controller.WB_Data_clean           35      0.00%      0.00% (Unspecified)
board.cache_hierarchy.ruby_system.L2Cache_Controller.Ack         1670      0.00%      0.00% (Unspecified)
board.cache_hierarchy.ruby_system.L2Cache_Controller.Ack_all          842      0.00%      0.00% (Unspecified)
board.cache_hierarchy.ruby_system.L2Cache_Controller.Unblock          272      0.00%      0.00% (Unspecified)
board.cache_hierarchy.ruby_system.L2Cache_Controller.Exclusive_Unblock         5045      0.00%      0.00% (Unspecified)
board.cache_hierarchy.ruby_system.L2Cache_Controller.NP.L1_GET_INSTR          277      0.00%      0.00% (Unspecified)
board.cache_hierarchy.ruby_system.L2Cache_Controller.NP.L1_GETS         1866      0.00%      0.00% (Unspecified)
board.cache_hierarchy.ruby_system.L2Cache_Controller.NP.L1_GETX          715      0.00%      0.00% (Unspecified)
board.cache_hierarchy.ruby_system.L2Cache_Controller.SS.L1_GET_INSTR         1383      0.00%      0.00% (Unspecified)
board.cache_hierarchy.ruby_system.L2Cache_Controller.SS.L1_GETS          432      0.00%      0.00% (Unspecified)
board.cache_hierarchy.ruby_system.L2Cache_Controller.SS.L1_UPGRADE           46      0.00%      0.00% (Unspecified)
board.cache_hierarchy.ruby_system.L2Cache_Controller.SS.L2_Replacement           92      0.00%      0.00% (Unspecified)
board.cache_hierarchy.ruby_system.L2Cache_Controller.SS.L2_Replacement_clean          444      0.00%      0.00% (Unspecified)
board.cache_hierarchy.ruby_system.L2Cache_Controller.M.L1_GETS         2271      0.00%      0.00% (Unspecified)
board.cache_hierarchy.ruby_system.L2Cache_Controller.M.L1_GETX            5      0.00%      0.00% (Unspecified)
board.cache_hierarchy.ruby_system.L2Cache_Controller.M.L2_Replacement         1040      0.00%      0.00% (Unspecified)
board.cache_hierarchy.ruby_system.L2Cache_Controller.M.L2_Replacement_clean          429      0.00%      0.00% (Unspecified)
board.cache_hierarchy.ruby_system.L2Cache_Controller.MT.L1_GETS          272      0.00%      0.00% (Unspecified)
board.cache_hierarchy.ruby_system.L2Cache_Controller.MT.L1_GETX          148      0.00%      0.00% (Unspecified)
board.cache_hierarchy.ruby_system.L2Cache_Controller.MT.L1_PUTX          409      0.00%      0.00% (Unspecified)
board.cache_hierarchy.ruby_system.L2Cache_Controller.MT.L2_Replacement          228      0.00%      0.00% (Unspecified)
board.cache_hierarchy.ruby_system.L2Cache_Controller.MT.L2_Replacement_clean          625      0.00%      0.00% (Unspecified)
board.cache_hierarchy.ruby_system.L2Cache_Controller.M_I.L1_GET_INSTR           18      0.00%      0.00% (Unspecified)
board.cache_hierarchy.ruby_system.L2Cache_Controller.M_I.L1_GETS           44      0.00%      0.00% (Unspecified)
board.cache_hierarchy.ruby_system.L2Cache_Controller.M_I.L1_GETX           12      0.00%      0.00% (Unspecified)
board.cache_hierarchy.ruby_system.L2Cache_Controller.M_I.Mem_Ack         2858      0.00%      0.00% (Unspecified)
board.cache_hierarchy.ruby_system.L2Cache_Controller.MT_I.WB_Data           43      0.00%      0.00% (Unspecified)
board.cache_hierarchy.ruby_system.L2Cache_Controller.MT_I.Ack_all          185      0.00%      0.00% (Unspecified)
board.cache_hierarchy.ruby_system.L2Cache_Controller.MCT_I.WB_Data          504      0.00%      0.00% (Unspecified)
board.cache_hierarchy.ruby_system.L2Cache_Controller.MCT_I.Ack_all          121      0.00%      0.00% (Unspecified)
board.cache_hierarchy.ruby_system.L2Cache_Controller.I_I.Ack         1481      0.00%      0.00% (Unspecified)
board.cache_hierarchy.ruby_system.L2Cache_Controller.I_I.Ack_all          444      0.00%      0.00% (Unspecified)
board.cache_hierarchy.ruby_system.L2Cache_Controller.S_I.Ack          189      0.00%      0.00% (Unspecified)
board.cache_hierarchy.ruby_system.L2Cache_Controller.S_I.Ack_all           92      0.00%      0.00% (Unspecified)
board.cache_hierarchy.ruby_system.L2Cache_Controller.ISS.L1_GETS            6      0.00%      0.00% (Unspecified)
board.cache_hierarchy.ruby_system.L2Cache_Controller.ISS.Mem_Data         1860      0.00%      0.00% (Unspecified)
board.cache_hierarchy.ruby_system.L2Cache_Controller.IS.L1_GET_INSTR          237      0.00%      0.00% (Unspecified)
board.cache_hierarchy.ruby_system.L2Cache_Controller.IS.L1_GETS           35      0.00%      0.00% (Unspecified)
board.cache_hierarchy.ruby_system.L2Cache_Controller.IS.Mem_Data          283      0.00%      0.00% (Unspecified)
board.cache_hierarchy.ruby_system.L2Cache_Controller.IM.L1_GETX           17      0.00%      0.00% (Unspecified)
board.cache_hierarchy.ruby_system.L2Cache_Controller.IM.Mem_Data          715      0.00%      0.00% (Unspecified)
board.cache_hierarchy.ruby_system.L2Cache_Controller.SS_MB.L1_GETS            2      0.00%      0.00% (Unspecified)
board.cache_hierarchy.ruby_system.L2Cache_Controller.SS_MB.Exclusive_Unblock           46      0.00%      0.00% (Unspecified)
board.cache_hierarchy.ruby_system.L2Cache_Controller.MT_MB.L1_GETX           94      0.00%      0.00% (Unspecified)
board.cache_hierarchy.ruby_system.L2Cache_Controller.MT_MB.Exclusive_Unblock         4999      0.00%      0.00% (Unspecified)
board.cache_hierarchy.ruby_system.L2Cache_Controller.MT_IIB.L1_GETS           16      0.00%      0.00% (Unspecified)
board.cache_hierarchy.ruby_system.L2Cache_Controller.MT_IIB.WB_Data          237      0.00%      0.00% (Unspecified)
board.cache_hierarchy.ruby_system.L2Cache_Controller.MT_IIB.WB_Data_clean           35      0.00%      0.00% (Unspecified)
board.cache_hierarchy.ruby_system.L2Cache_Controller.MT_SB.L1_GETS            3      0.00%      0.00% (Unspecified)
board.cache_hierarchy.ruby_system.L2Cache_Controller.MT_SB.Unblock          272      0.00%      0.00% (Unspecified)
board.cache_hierarchy.ruby_system.RequestType.LD.latency_hist_seqr::bucket_size          256                       (Unspecified)
board.cache_hierarchy.ruby_system.RequestType.LD.latency_hist_seqr::max_bucket         2559                       (Unspecified)
board.cache_hierarchy.ruby_system.RequestType.LD.latency_hist_seqr::samples       874957                       (Unspecified)
board.cache_hierarchy.ruby_system.RequestType.LD.latency_hist_seqr::mean     1.495022                       (Unspecified)
board.cache_hierarchy.ruby_system.RequestType.LD.latency_hist_seqr::gmean     1.020418                       (Unspecified)
board.cache_hierarchy.ruby_system.RequestType.LD.latency_hist_seqr::stdev    11.551247                       (Unspecified)
board.cache_hierarchy.ruby_system.RequestType.LD.latency_hist_seqr |      874702     99.97%     99.97% |         164      0.02%     99.99% |          70      0.01%    100.00% |          18      0.00%    100.00% |           2      0.00%    100.00% |           1      0.00%    100.00% |           0      0.00%    100.00% |           0      0.00%    100.00% |           0      0.00%    100.00% |           0      0.00%    100.00% (Unspecified)
board.cache_hierarchy.ruby_system.RequestType.LD.latency_hist_seqr::total       874957                       (Unspecified)
board.cache_hierarchy.ruby_system.RequestType.LD.hit_latency_hist_seqr::bucket_size            1                       (Unspecified)
board.cache_hierarchy.ruby_system.RequestType.LD.hit_latency_hist_seqr::max_bucket            9                       (Unspecified)
board.cache_hierarchy.ruby_system.RequestType.LD.hit_latency_hist_seqr::samples       870075                       (Unspecified)
board.cache_hierarchy.ruby_system.RequestType.LD.hit_latency_hist_seqr::mean            1                       (Unspecified)
board.cache_hierarchy.ruby_system.RequestType.LD.hit_latency_hist_seqr::gmean            1                       (Unspecified)
board.cache_hierarchy.ruby_system.RequestType.LD.hit_latency_hist_seqr |           0      0.00%      0.00% |      870075    100.00%    100.00% |           0      0.00%    100.00% |           0      0.00%    100.00% |           0      0.00%    100.00% |           0      0.00%    100.00% |           0      0.00%    100.00% |           0      0.00%    100.00% |           0      0.00%    100.00% |           0      0.00%    100.00% (Unspecified)
board.cache_hierarchy.ruby_system.RequestType.LD.hit_latency_hist_seqr::total       870075                       (Unspecified)
board.cache_hierarchy.ruby_system.RequestType.LD.miss_latency_hist_seqr::bucket_size          256                       (Unspecified)
board.cache_hierarchy.ruby_system.RequestType.LD.miss_latency_hist_seqr::max_bucket         2559                       (Unspecified)
board.cache_hierarchy.ruby_system.RequestType.LD.miss_latency_hist_seqr::samples         4882                       (Unspecified)
board.cache_hierarchy.ruby_system.RequestType.LD.miss_latency_hist_seqr::mean    89.718353                       (Unspecified)
board.cache_hierarchy.ruby_system.RequestType.LD.miss_latency_hist_seqr::gmean    37.428790                       (Unspecified)
board.cache_hierarchy.ruby_system.RequestType.LD.miss_latency_hist_seqr::stdev   126.846102                       (Unspecified)
board.cache_hierarchy.ruby_system.RequestType.LD.miss_latency_hist_seqr |        4627     94.78%     94.78% |         164      3.36%     98.14% |          70      1.43%     99.57% |          18      0.37%     99.94% |           2      0.04%     99.98% |           1      0.02%    100.00% |           0      0.00%    100.00% |           0      0.00%    100.00% |           0      0.00%    100.00% |           0      0.00%    100.00% (Unspecified)
board.cache_hierarchy.ruby_system.RequestType.LD.miss_latency_hist_seqr::total         4882                       (Unspecified)
board.cache_hierarchy.ruby_system.RequestType.ST.latency_hist_seqr::bucket_size          128                       (Unspecified)
board.cache_hierarchy.ruby_system.RequestType.ST.latency_hist_seqr::max_bucket         1279                       (Unspecified)
board.cache_hierarchy.ruby_system.RequestType.ST.latency_hist_seqr::samples       181244                       (Unspecified)
board.cache_hierarchy.ruby_system.RequestType.ST.latency_hist_seqr::mean     1.766845                       (Unspecified)
board.cache_hierarchy.ruby_system.RequestType.ST.latency_hist_seqr::gmean     1.023880                       (Unspecified)
board.cache_hierarchy.ruby_system.RequestType.ST.latency_hist_seqr::stdev    13.842096                       (Unspecified)
board.cache_hierarchy.ruby_system.RequestType.ST.latency_hist_seqr |      180528     99.60%     99.60% |         645      0.36%     99.96% |          21      0.01%     99.97% |          32      0.02%     99.99% |           8      0.00%     99.99% |           4      0.00%    100.00% |           1      0.00%    100.00% |           5      0.00%    100.00% |           0      0.00%    100.00% |           0      0.00%    100.00% (Unspecified)
board.cache_hierarchy.ruby_system.RequestType.ST.latency_hist_seqr::total       181244                       (Unspecified)
board.cache_hierarchy.ruby_system.RequestType.ST.hit_latency_hist_seqr::bucket_size            1                       (Unspecified)
board.cache_hierarchy.ruby_system.RequestType.ST.hit_latency_hist_seqr::max_bucket            9                       (Unspecified)
board.cache_hierarchy.ruby_system.RequestType.ST.hit_latency_hist_seqr::samples       180332                       (Unspecified)
board.cache_hierarchy.ruby_system.RequestType.ST.hit_latency_hist_seqr::mean            1                       (Unspecified)
board.cache_hierarchy.ruby_system.RequestType.ST.hit_latency_hist_seqr::gmean            1                       (Unspecified)
board.cache_hierarchy.ruby_system.RequestType.ST.hit_latency_hist_seqr |           0      0.00%      0.00% |      180332    100.00%    100.00% |           0      0.00%    100.00% |           0      0.00%    100.00% |           0      0.00%    100.00% |           0      0.00%    100.00% |           0      0.00%    100.00% |           0      0.00%    100.00% |           0      0.00%    100.00% |           0      0.00%    100.00% (Unspecified)
board.cache_hierarchy.ruby_system.RequestType.ST.hit_latency_hist_seqr::total       180332                       (Unspecified)
board.cache_hierarchy.ruby_system.RequestType.ST.miss_latency_hist_seqr::bucket_size          128                       (Unspecified)
board.cache_hierarchy.ruby_system.RequestType.ST.miss_latency_hist_seqr::max_bucket         1279                       (Unspecified)
board.cache_hierarchy.ruby_system.RequestType.ST.miss_latency_hist_seqr::samples          912                       (Unspecified)
board.cache_hierarchy.ruby_system.RequestType.ST.miss_latency_hist_seqr::mean   153.396930                       (Unspecified)
board.cache_hierarchy.ruby_system.RequestType.ST.miss_latency_hist_seqr::gmean   108.850829                       (Unspecified)
board.cache_hierarchy.ruby_system.RequestType.ST.miss_latency_hist_seqr::stdev   122.417823                       (Unspecified)
board.cache_hierarchy.ruby_system.RequestType.ST.miss_latency_hist_seqr |         196     21.49%     21.49% |         645     70.72%     92.21% |          21      2.30%     94.52% |          32      3.51%     98.03% |           8      0.88%     98.90% |           4      0.44%     99.34% |           1      0.11%     99.45% |           5      0.55%    100.00% |           0      0.00%    100.00% |           0      0.00%    100.00% (Unspecified)
board.cache_hierarchy.ruby_system.RequestType.ST.miss_latency_hist_seqr::total          912                       (Unspecified)
board.cache_hierarchy.ruby_system.RequestType.IFETCH.latency_hist_seqr::bucket_size          128                       (Unspecified)
board.cache_hierarchy.ruby_system.RequestType.IFETCH.latency_hist_seqr::max_bucket         1279                       (Unspecified)
board.cache_hierarchy.ruby_system.RequestType.IFETCH.latency_hist_seqr::samples      2489656                       (Unspecified)
board.cache_hierarchy.ruby_system.RequestType.IFETCH.latency_hist_seqr::mean     1.043752                       (Unspecified)
board.cache_hierarchy.ruby_system.RequestType.IFETCH.latency_hist_seqr::gmean     1.002487                       (Unspecified)
board.cache_hierarchy.ruby_system.RequestType.IFETCH.latency_hist_seqr::stdev     2.892318                       (Unspecified)
board.cache_hierarchy.ruby_system.RequestType.IFETCH.latency_hist_seqr |     2489181     99.98%     99.98% |         432      0.02%    100.00% |          15      0.00%    100.00% |          22      0.00%    100.00% |           4      0.00%    100.00% |           0      0.00%    100.00% |           0      0.00%    100.00% |           2      0.00%    100.00% |           0      0.00%    100.00% |           0      0.00%    100.00% (Unspecified)
board.cache_hierarchy.ruby_system.RequestType.IFETCH.latency_hist_seqr::total      2489656                       (Unspecified)
board.cache_hierarchy.ruby_system.RequestType.IFETCH.hit_latency_hist_seqr::bucket_size            1                       (Unspecified)
board.cache_hierarchy.ruby_system.RequestType.IFETCH.hit_latency_hist_seqr::max_bucket            9                       (Unspecified)
board.cache_hierarchy.ruby_system.RequestType.IFETCH.hit_latency_hist_seqr::samples      2487759                       (Unspecified)
board.cache_hierarchy.ruby_system.RequestType.IFETCH.hit_latency_hist_seqr::mean            1                       (Unspecified)
board.cache_hierarchy.ruby_system.RequestType.IFETCH.hit_latency_hist_seqr::gmean            1                       (Unspecified)
board.cache_hierarchy.ruby_system.RequestType.IFETCH.hit_latency_hist_seqr |           0      0.00%      0.00% |     2487759    100.00%    100.00% |           0      0.00%    100.00% |           0      0.00%    100.00% |           0      0.00%    100.00% |           0      0.00%    100.00% |           0      0.00%    100.00% |           0      0.00%    100.00% |           0      0.00%    100.00% |           0      0.00%    100.00% (Unspecified)
board.cache_hierarchy.ruby_system.RequestType.IFETCH.hit_latency_hist_seqr::total      2487759                       (Unspecified)
board.cache_hierarchy.ruby_system.RequestType.IFETCH.miss_latency_hist_seqr::bucket_size          128                       (Unspecified)
board.cache_hierarchy.ruby_system.RequestType.IFETCH.miss_latency_hist_seqr::max_bucket         1279                       (Unspecified)
board.cache_hierarchy.ruby_system.RequestType.IFETCH.miss_latency_hist_seqr::samples         1897                       (Unspecified)
board.cache_hierarchy.ruby_system.RequestType.IFETCH.miss_latency_hist_seqr::mean    58.420664                       (Unspecified)
board.cache_hierarchy.ruby_system.RequestType.IFETCH.miss_latency_hist_seqr::gmean    26.058738                       (Unspecified)
board.cache_hierarchy.ruby_system.RequestType.IFETCH.miss_latency_hist_seqr::stdev    87.683852                       (Unspecified)
board.cache_hierarchy.ruby_system.RequestType.IFETCH.miss_latency_hist_seqr |        1422     74.96%     74.96% |         432     22.77%     97.73% |          15      0.79%     98.52% |          22      1.16%     99.68% |           4      0.21%     99.89% |           0      0.00%     99.89% |           0      0.00%     99.89% |           2      0.11%    100.00% |           0      0.00%    100.00% |           0      0.00%    100.00% (Unspecified)
board.cache_hierarchy.ruby_system.RequestType.IFETCH.miss_latency_hist_seqr::total         1897                       (Unspecified)
board.cache_hierarchy.ruby_system.RequestType.Load_Linked.latency_hist_seqr::bucket_size           32                       (Unspecified)
board.cache_hierarchy.ruby_system.RequestType.Load_Linked.latency_hist_seqr::max_bucket          319                       (Unspecified)
board.cache_hierarchy.ruby_system.RequestType.Load_Linked.latency_hist_seqr::samples           73                       (Unspecified)
board.cache_hierarchy.ruby_system.RequestType.Load_Linked.latency_hist_seqr::mean     6.123288                       (Unspecified)
board.cache_hierarchy.ruby_system.RequestType.Load_Linked.latency_hist_seqr::gmean     1.153533                       (Unspecified)
board.cache_hierarchy.ruby_system.RequestType.Load_Linked.latency_hist_seqr::stdev    31.451438                       (Unspecified)
board.cache_hierarchy.ruby_system.RequestType.Load_Linked.latency_hist_seqr |          71     97.26%     97.26% |           0      0.00%     97.26% |           0      0.00%     97.26% |           0      0.00%     97.26% |           1      1.37%     98.63% |           0      0.00%     98.63% |           0      0.00%     98.63% |           1      1.37%    100.00% |           0      0.00%    100.00% |           0      0.00%    100.00% (Unspecified)
board.cache_hierarchy.ruby_system.RequestType.Load_Linked.latency_hist_seqr::total           73                       (Unspecified)
board.cache_hierarchy.ruby_system.RequestType.Load_Linked.hit_latency_hist_seqr::bucket_size            1                       (Unspecified)
board.cache_hierarchy.ruby_system.RequestType.Load_Linked.hit_latency_hist_seqr::max_bucket            9                       (Unspecified)
board.cache_hierarchy.ruby_system.RequestType.Load_Linked.hit_latency_hist_seqr::samples           71                       (Unspecified)
board.cache_hierarchy.ruby_system.RequestType.Load_Linked.hit_latency_hist_seqr::mean            1                       (Unspecified)
board.cache_hierarchy.ruby_system.RequestType.Load_Linked.hit_latency_hist_seqr::gmean            1                       (Unspecified)
board.cache_hierarchy.ruby_system.RequestType.Load_Linked.hit_latency_hist_seqr |           0      0.00%      0.00% |          71    100.00%    100.00% |           0      0.00%    100.00% |           0      0.00%    100.00% |           0      0.00%    100.00% |           0      0.00%    100.00% |           0      0.00%    100.00% |           0      0.00%    100.00% |           0      0.00%    100.00% |           0      0.00%    100.00% (Unspecified)
board.cache_hierarchy.ruby_system.RequestType.Load_Linked.hit_latency_hist_seqr::total           71                       (Unspecified)
board.cache_hierarchy.ruby_system.RequestType.Load_Linked.miss_latency_hist_seqr::bucket_size           32                       (Unspecified)
board.cache_hierarchy.ruby_system.RequestType.Load_Linked.miss_latency_hist_seqr::max_bucket          319                       (Unspecified)
board.cache_hierarchy.ruby_system.RequestType.Load_Linked.miss_latency_hist_seqr::samples            2                       (Unspecified)
board.cache_hierarchy.ruby_system.RequestType.Load_Linked.miss_latency_hist_seqr::mean          188                       (Unspecified)
board.cache_hierarchy.ruby_system.RequestType.Load_Linked.miss_latency_hist_seqr::gmean   183.695400                       (Unspecified)
board.cache_hierarchy.ruby_system.RequestType.Load_Linked.miss_latency_hist_seqr::stdev    56.568542                       (Unspecified)
board.cache_hierarchy.ruby_system.RequestType.Load_Linked.miss_latency_hist_seqr |           0      0.00%      0.00% |           0      0.00%      0.00% |           0      0.00%      0.00% |           0      0.00%      0.00% |           1     50.00%     50.00% |           0      0.00%     50.00% |           0      0.00%     50.00% |           1     50.00%    100.00% |           0      0.00%    100.00% |           0      0.00%    100.00% (Unspecified)
board.cache_hierarchy.ruby_system.RequestType.Load_Linked.miss_latency_hist_seqr::total            2                       (Unspecified)
board.cache_hierarchy.ruby_system.RequestType.Store_Conditional.latency_hist_seqr::bucket_size            1                       (Unspecified)
board.cache_hierarchy.ruby_system.RequestType.Store_Conditional.latency_hist_seqr::max_bucket            9                       (Unspecified)
board.cache_hierarchy.ruby_system.RequestType.Store_Conditional.latency_hist_seqr::samples           73                       (Unspecified)
board.cache_hierarchy.ruby_system.RequestType.Store_Conditional.latency_hist_seqr::mean            1                       (Unspecified)
board.cache_hierarchy.ruby_system.RequestType.Store_Conditional.latency_hist_seqr::gmean            1                       (Unspecified)
board.cache_hierarchy.ruby_system.RequestType.Store_Conditional.latency_hist_seqr |           0      0.00%      0.00% |          73    100.00%    100.00% |           0      0.00%    100.00% |           0      0.00%    100.00% |           0      0.00%    100.00% |           0      0.00%    100.00% |           0      0.00%    100.00% |           0      0.00%    100.00% |           0      0.00%    100.00% |           0      0.00%    100.00% (Unspecified)
board.cache_hierarchy.ruby_system.RequestType.Store_Conditional.latency_hist_seqr::total           73                       (Unspecified)
board.cache_hierarchy.ruby_system.RequestType.Store_Conditional.hit_latency_hist_seqr::bucket_size            1                       (Unspecified)
board.cache_hierarchy.ruby_system.RequestType.Store_Conditional.hit_latency_hist_seqr::max_bucket            9                       (Unspecified)
board.cache_hierarchy.ruby_system.RequestType.Store_Conditional.hit_latency_hist_seqr::samples           73                       (Unspecified)
board.cache_hierarchy.ruby_system.RequestType.Store_Conditional.hit_latency_hist_seqr::mean            1                       (Unspecified)
board.cache_hierarchy.ruby_system.RequestType.Store_Conditional.hit_latency_hist_seqr::gmean            1                       (Unspecified)
[...]
board.processor.cores9.core.commitStats0.committedInstType::SimdMatMultAcc            0      0.00%     51.58% # Class of committed instruction. (Count)
board.processor.cores9.core.commitStats0.committedInstType::SimdShift            0      0.00%     51.58% # Class of committed instruction. (Count)
board.processor.cores9.core.commitStats0.committedInstType::SimdShiftAcc            0      0.00%     51.58% # Class of committed instruction. (Count)
board.processor.cores9.core.commitStats0.committedInstType::SimdDiv            0      0.00%     51.58% # Class of committed instruction. (Count)
board.processor.cores9.core.commitStats0.committedInstType::SimdSqrt            0      0.00%     51.58% # Class of committed instruction. (Count)
board.processor.cores9.core.commitStats0.committedInstType::SimdFloatAdd            0      0.00%     51.58% # Class of committed instruction. (Count)
board.processor.cores9.core.commitStats0.committedInstType::SimdFloatAlu            0      0.00%     51.58% # Class of committed instruction. (Count)
board.processor.cores9.core.commitStats0.committedInstType::SimdFloatCmp            0      0.00%     51.58% # Class of committed instruction. (Count)
board.processor.cores9.core.commitStats0.committedInstType::SimdFloatCvt            0      0.00%     51.58% # Class of committed instruction. (Count)
board.processor.cores9.core.commitStats0.committedInstType::SimdFloatDiv            0      0.00%     51.58% # Class of committed instruction. (Count)
board.processor.cores9.core.commitStats0.committedInstType::SimdFloatMisc            0      0.00%     51.58% # Class of committed instruction. (Count)
board.processor.cores9.core.commitStats0.committedInstType::SimdFloatMult            0      0.00%     51.58% # Class of committed instruction. (Count)
board.processor.cores9.core.commitStats0.committedInstType::SimdFloatMultAcc            0      0.00%     51.58% # Class of committed instruction. (Count)
board.processor.cores9.core.commitStats0.committedInstType::SimdFloatMatMultAcc            0      0.00%     51.58% # Class of committed instruction. (Count)
board.processor.cores9.core.commitStats0.committedInstType::SimdFloatSqrt            0      0.00%     51.58% # Class of committed instruction. (Count)
board.processor.cores9.core.commitStats0.committedInstType::SimdReduceAdd            0      0.00%     51.58% # Class of committed instruction. (Count)
board.processor.cores9.core.commitStats0.committedInstType::SimdReduceAlu            0      0.00%     51.58% # Class of committed instruction. (Count)
board.processor.cores9.core.commitStats0.committedInstType::SimdReduceCmp            0      0.00%     51.58% # Class of committed instruction. (Count)
board.processor.cores9.core.commitStats0.committedInstType::SimdFloatReduceAdd            0      0.00%     51.58% # Class of committed instruction. (Count)
board.processor.cores9.core.commitStats0.committedInstType::SimdFloatReduceCmp            0      0.00%     51.58% # Class of committed instruction. (Count)
board.processor.cores9.core.commitStats0.committedInstType::SimdAes            0      0.00%     51.58% # Class of committed instruction. (Count)
board.processor.cores9.core.commitStats0.committedInstType::SimdAesMix            0      0.00%     51.58% # Class of committed instruction. (Count)
board.processor.cores9.core.commitStats0.committedInstType::SimdSha1Hash            0      0.00%     51.58% # Class of committed instruction. (Count)
board.processor.cores9.core.commitStats0.committedInstType::SimdSha1Hash2            0      0.00%     51.58% # Class of committed instruction. (Count)
board.processor.cores9.core.commitStats0.committedInstType::SimdSha256Hash            0      0.00%     51.58% # Class of committed instruction. (Count)
board.processor.cores9.core.commitStats0.committedInstType::SimdSha256Hash2            0      0.00%     51.58% # Class of committed instruction. (Count)
board.processor.cores9.core.commitStats0.committedInstType::SimdShaSigma2            0      0.00%     51.58% # Class of committed instruction. (Count)
board.processor.cores9.core.commitStats0.committedInstType::SimdShaSigma3            0      0.00%     51.58% # Class of committed instruction. (Count)
board.processor.cores9.core.commitStats0.committedInstType::SimdSha3            0      0.00%     51.58% # Class of committed instruction. (Count)
board.processor.cores9.core.commitStats0.committedInstType::SimdSm4e            0      0.00%     51.58% # Class of committed instruction. (Count)
board.processor.cores9.core.commitStats0.committedInstType::SimdCrc            0      0.00%     51.58% # Class of committed instruction. (Count)
board.processor.cores9.core.commitStats0.committedInstType::SimdPredAlu            0      0.00%     51.58% # Class of committed instruction. (Count)
board.processor.cores9.core.commitStats0.committedInstType::SimdDotProd            0      0.00%     51.58% # Class of committed instruction. (Count)
board.processor.cores9.core.commitStats0.committedInstType::Matrix            0      0.00%     51.58% # Class of committed instruction. (Count)
board.processor.cores9.core.commitStats0.committedInstType::MatrixMov            0      0.00%     51.58% # Class of committed instruction. (Count)
board.processor.cores9.core.commitStats0.committedInstType::MatrixOP            0      0.00%     51.58% # Class of committed instruction. (Count)
board.processor.cores9.core.commitStats0.committedInstType::MemRead        54934     40.22%     91.80% # Class of committed instruction. (Count)
board.processor.cores9.core.commitStats0.committedInstType::MemWrite        11185      8.19%     99.99% # Class of committed instruction. (Count)
board.processor.cores9.core.commitStats0.committedInstType::FloatMemRead            0      0.00%     99.99% # Class of committed instruction. (Count)
board.processor.cores9.core.commitStats0.committedInstType::FloatMemWrite           12      0.01%    100.00% # Class of committed instruction. (Count)
board.processor.cores9.core.commitStats0.committedInstType::InstPrefetch            0      0.00%    100.00% # Class of committed instruction. (Count)
board.processor.cores9.core.commitStats0.committedInstType::SimdUnitStrideLoad            0      0.00%    100.00% # Class of committed instruction. (Count)
board.processor.cores9.core.commitStats0.committedInstType::SimdUnitStrideStore            0      0.00%    100.00% # Class of committed instruction. (Count)
board.processor.cores9.core.commitStats0.committedInstType::SimdUnitStrideMaskLoad            0      0.00%    100.00% # Class of committed instruction. (Count)
board.processor.cores9.core.commitStats0.committedInstType::SimdUnitStrideMaskStore            0      0.00%    100.00% # Class of committed instruction. (Count)
board.processor.cores9.core.commitStats0.committedInstType::SimdStridedLoad            0      0.00%    100.00% # Class of committed instruction. (Count)
board.processor.cores9.core.commitStats0.committedInstType::SimdStridedStore            0      0.00%    100.00% # Class of committed instruction. (Count)
board.processor.cores9.core.commitStats0.committedInstType::SimdIndexedLoad            0      0.00%    100.00% # Class of committed instruction. (Count)
board.processor.cores9.core.commitStats0.committedInstType::SimdIndexedStore            0      0.00%    100.00% # Class of committed instruction. (Count)
board.processor.cores9.core.commitStats0.committedInstType::SimdWholeRegisterLoad            0      0.00%    100.00% # Class of committed instruction. (Count)
board.processor.cores9.core.commitStats0.committedInstType::SimdWholeRegisterStore            0      0.00%    100.00% # Class of committed instruction. (Count)
board.processor.cores9.core.commitStats0.committedInstType::SimdUnitStrideFaultOnlyFirstLoad            0      0.00%    100.00% # Class of committed instruction. (Count)
board.processor.cores9.core.commitStats0.committedInstType::SimdUnitStrideSegmentedLoad            0      0.00%    100.00% # Class of committed instruction. (Count)
board.processor.cores9.core.commitStats0.committedInstType::SimdUnitStrideSegmentedStore            0      0.00%    100.00% # Class of committed instruction. (Count)
board.processor.cores9.core.commitStats0.committedInstType::SimdUnitStrideSegmentedFaultOnlyFirstLoad            0      0.00%    100.00% # Class of committed instruction. (Count)
board.processor.cores9.core.commitStats0.committedInstType::SimdStrideSegmentedLoad            0      0.00%    100.00% # Class of committed instruction. (Count)
board.processor.cores9.core.commitStats0.committedInstType::SimdStrideSegmentedStore            0      0.00%    100.00% # Class of committed instruction. (Count)
board.processor.cores9.core.commitStats0.committedInstType::SimdExt            0      0.00%    100.00% # Class of committed instruction. (Count)
board.processor.cores9.core.commitStats0.committedInstType::SimdFloatExt            0      0.00%    100.00% # Class of committed instruction. (Count)
board.processor.cores9.core.commitStats0.committedInstType::SimdConfig            0      0.00%    100.00% # Class of committed instruction. (Count)
board.processor.cores9.core.commitStats0.committedInstType::SimdBf16Add            0      0.00%    100.00% # Class of committed instruction. (Count)
board.processor.cores9.core.commitStats0.committedInstType::SimdBf16Cmp            0      0.00%    100.00% # Class of committed instruction. (Count)
board.processor.cores9.core.commitStats0.committedInstType::SimdBf16Cvt            0      0.00%    100.00% # Class of committed instruction. (Count)
board.processor.cores9.core.commitStats0.committedInstType::SimdBf16DotProd            0      0.00%    100.00% # Class of committed instruction. (Count)
board.processor.cores9.core.commitStats0.committedInstType::SimdBf16MatMultAcc            0      0.00%    100.00% # Class of committed instruction. (Count)
board.processor.cores9.core.commitStats0.committedInstType::SimdBf16Mult            0      0.00%    100.00% # Class of committed instruction. (Count)
board.processor.cores9.core.commitStats0.committedInstType::SimdBf16MultAcc            0      0.00%    100.00% # Class of committed instruction. (Count)
board.processor.cores9.core.commitStats0.committedInstType::Bf16Cvt            0      0.00%    100.00% # Class of committed instruction. (Count)
board.processor.cores9.core.commitStats0.committedInstType::System            0      0.00%    100.00% # Class of committed instruction. (Count)
board.processor.cores9.core.commitStats0.committedInstType::total       136574                       # Class of committed instruction. (Count)
board.processor.cores9.core.commitStats0.committedControl::IsControl        13847                       # Class of control type instructions committed (Count)
board.processor.cores9.core.commitStats0.committedControl::IsDirectControl        12447                       # Class of control type instructions committed (Count)
board.processor.cores9.core.commitStats0.committedControl::IsIndirectControl         1400                       # Class of control type instructions committed (Count)
board.processor.cores9.core.commitStats0.committedControl::IsCondControl         6935                       # Class of control type instructions committed (Count)
board.processor.cores9.core.commitStats0.committedControl::IsUncondControl         6912                       # Class of control type instructions committed (Count)
board.processor.cores9.core.commitStats0.committedControl::IsCall         1402                       # Class of control type instructions committed (Count)
board.processor.cores9.core.commitStats0.committedControl::IsReturn         1395                       # Class of control type instructions committed (Count)
board.processor.cores9.core.commitStats0.functionCalls         1402                       # Number of function calls committed (Count)
board.processor.cores9.core.commitStats0.numCallsReturns         2797                       # Number of function calls and returns committed (Count)
board.processor.cores9.core.exec_context.thread_0.numMatAluAccesses            0                       # Number of matrix alu accesses (Count)
board.processor.cores9.core.exec_context.thread_0.numMatInsts            0                       # Number of matrix instructions (Count)
board.processor.cores9.core.exec_context.thread_0.numIdleCycles 1156133.314390                       # Number of idle cycles (Cycle)
board.processor.cores9.core.exec_context.thread_0.numBusyCycles 4026820.685610                       # Number of busy cycles (Cycle)
board.processor.cores9.core.exec_context.thread_0.notIdleFraction     0.776935                       # Percentage of non-idle cycles (Ratio)
board.processor.cores9.core.exec_context.thread_0.idleFraction     0.223065                       # Percentage of idle cycles (Ratio)
board.processor.cores9.core.executeStats0.numInsts       136567                       # Number of executed instructions (Count)
board.processor.cores9.core.executeStats0.numNop            0                       # Number of nop insts executed (Count)
board.processor.cores9.core.executeStats0.numBranches        13847                       # Number of branches executed (Count)
board.processor.cores9.core.executeStats0.numLoadInsts        54930                       # Number of load instructions executed (Count)
board.processor.cores9.core.executeStats0.numStoreInsts        11201                       # Number of stores executed (Count)
board.processor.cores9.core.executeStats0.instRate     0.026349                       # Inst execution rate ((Count/Cycle))
board.processor.cores9.core.executeStats0.numFpAluAccesses           12                       # Number of float alu accesses (Count)
board.processor.cores9.core.executeStats0.numFpRegReads           12                       # Number of times the floating registers were read (Count)
board.processor.cores9.core.executeStats0.numFpRegWrites            0                       # Number of times the floating registers were written (Count)
board.processor.cores9.core.executeStats0.numIntAluAccesses       132451                       # Number of integer alu accesses (Count)
board.processor.cores9.core.executeStats0.numIntRegReads       164109                       # Number of times the integer registers were read (Count)
board.processor.cores9.core.executeStats0.numIntRegWrites       111548                       # Number of times the integer registers were written (Count)
board.processor.cores9.core.executeStats0.numMemRefs        66131                       # Number of memory refs (Count)
board.processor.cores9.core.executeStats0.numMiscRegReads           28                       # Number of times the Misc registers were read (Count)
board.processor.cores9.core.executeStats0.numVecAluAccesses            0                       # Number of vector alu accesses (Count)
board.processor.cores9.core.executeStats0.numDiscardedOps            0                       # Number of ops (including micro ops) which were discarded before commit (Count)
board.processor.cores9.core.fetchStats0.numInsts       136571                       # Number of instructions fetched (thread level) (Count)
board.processor.cores9.core.fetchStats0.numOps       136578                       # Number of ops (including micro ops) fetched (thread level) (Count)
board.processor.cores9.core.fetchStats0.fetchRate     0.026350                       # Number of inst fetches per cycle ((Count/Cycle))
board.processor.cores9.core.fetchStats0.numBranches        13847                       # Number of branches fetched (Count)
board.processor.cores9.core.fetchStats0.branchRate     0.002672                       # Number of branch fetches per cycle (Ratio)
board.processor.cores9.core.fetchStats0.numFetchSuspends            0                       # Number of times Execute suspended instruction fetching (Count)
board.processor.cores9.core.mmu.dtb.readHits            0                       # read hits (Count)
board.processor.cores9.core.mmu.dtb.readMisses            0                       # read misses (Count)
board.processor.cores9.core.mmu.dtb.readAccesses            0                       # read accesses (Count)
board.processor.cores9.core.mmu.dtb.writeHits            0                       # write hits (Count)
board.processor.cores9.core.mmu.dtb.writeMisses            0                       # write misses (Count)
board.processor.cores9.core.mmu.dtb.writeAccesses            0                       # write accesses (Count)
board.processor.cores9.core.mmu.dtb.hits            0                       # Total TLB (read and write) hits (Count)
board.processor.cores9.core.mmu.dtb.misses            0                       # Total TLB (read and write) misses (Count)
board.processor.cores9.core.mmu.dtb.accesses            0                       # Total TLB (read and write) accesses (Count)
board.processor.cores9.core.mmu.dtb.walker.num_4kb_walks            0                       # Completed page walks with 4KB pages (Count)
board.processor.cores9.core.mmu.dtb.walker.num_64kb_walks            0                       # Completed page walks with 64KB pages (Count)
board.processor.cores9.core.mmu.dtb.walker.num_2mb_walks            0                       # Completed page walks with 2MB pages (Count)
board.processor.cores9.core.mmu.dtb.walker.power_state.pwrStateResidencyTicks::UNDEFINED   1725923682                       # Cumulative time (in ticks) in various power states (Tick)
board.processor.cores9.core.mmu.itb.readHits            0                       # read hits (Count)
board.processor.cores9.core.mmu.itb.readMisses            0                       # read misses (Count)
board.processor.cores9.core.mmu.itb.readAccesses            0                       # read accesses (Count)
board.processor.cores9.core.mmu.itb.writeHits            0                       # write hits (Count)
board.processor.cores9.core.mmu.itb.writeMisses            0                       # write misses (Count)
board.processor.cores9.core.mmu.itb.writeAccesses            0                       # write accesses (Count)
board.processor.cores9.core.mmu.itb.hits            0                       # Total TLB (read and write) hits (Count)
board.processor.cores9.core.mmu.itb.misses            0                       # Total TLB (read and write) misses (Count)
board.processor.cores9.core.mmu.itb.accesses            0                       # Total TLB (read and write) accesses (Count)
board.processor.cores9.core.mmu.itb.walker.num_4kb_walks            0                       # Completed page walks with 4KB pages (Count)
board.processor.cores9.core.mmu.itb.walker.num_64kb_walks            0                       # Completed page walks with 64KB pages (Count)
board.processor.cores9.core.mmu.itb.walker.num_2mb_walks            0                       # Completed page walks with 2MB pages (Count)
board.processor.cores9.core.mmu.itb.walker.power_state.pwrStateResidencyTicks::UNDEFINED   1725923682                       # Cumulative time (in ticks) in various power states (Tick)
board.processor.cores9.core.power_state.pwrStateResidencyTicks::ON   1725923682                       # Cumulative time (in ticks) in various power states (Tick)
board.processor.cores9.core.thread_0.numInsts       136567                       # Number of Instructions committed (Count)
board.processor.cores9.core.thread_0.numOps       136574                       # Number of Ops committed (Count)
board.processor.cores9.core.thread_0.numMemRefs        66131                       # Number of Memory References (Count)
board.workload.inst.arm                             0                       # number of arm instructions executed (Count)
board.workload.inst.quiesce                         0                       # number of quiesce instructions executed (Count)

---------- End Simulation Statistics   ----------
