
---------- Begin Simulation Statistics ----------
simSeconds                                   0.000300                       # Number of seconds simulated (Second)
simTicks                                    299925441                       # Number of ticks simulated (Tick)
finalTick                                  1825612227                       # Number of ticks from beginning of simulation (restored from checkpoints and never reset) (Tick)
simFreq                                  1000000000000                       # The number of ticks per simulated second ((Tick/Second))
hostSeconds                                      6.68                       # Real time elapsed on the host (Second)
hostTickRate                                 44893944                       # The number of ticks simulated per host second (ticks/s) ((Tick/Second))
hostMemory                                    4963916                       # Number of bytes of host memory used (Byte)
simInsts                                      1856533                       # Number of instructions simulated (Count)
simOps                                        1856654                       # Number of ops (including micro ops) simulated (Count)
hostInstRate                                   277884                       # Simulator instruction rate (inst/s) ((Count/Second))
hostOpRate                                     277902                       # Simulator op (including micro ops) rate (op/s) ((Count/Second))
board.cache_hierarchy.ruby_system.delayHistogram::bucket_size          256                       # delay histogram for all message (Unspecified)
board.cache_hierarchy.ruby_system.delayHistogram::max_bucket         2559                       # delay histogram for all message (Unspecified)
board.cache_hierarchy.ruby_system.delayHistogram::samples        25990                       # delay histogram for all message (Unspecified)
board.cache_hierarchy.ruby_system.delayHistogram::mean     0.528703                       # delay histogram for all message (Unspecified)
board.cache_hierarchy.ruby_system.delayHistogram::stdev    15.351092                       # delay histogram for all message (Unspecified)
board.cache_hierarchy.ruby_system.delayHistogram |       25985     99.98%     99.98% |           1      0.00%     99.98% |           1      0.00%     99.99% |           1      0.00%     99.99% |           0      0.00%     99.99% |           1      0.00%    100.00% |           1      0.00%    100.00% |           0      0.00%    100.00% |           0      0.00%    100.00% |           0      0.00%    100.00% # delay histogram for all message (Unspecified)
board.cache_hierarchy.ruby_system.delayHistogram::total        25990                       # delay histogram for all message (Unspecified)
board.cache_hierarchy.ruby_system.m_outstandReqHistSeqr::bucket_size            1                       (Unspecified)
board.cache_hierarchy.ruby_system.m_outstandReqHistSeqr::max_bucket            9                       (Unspecified)
board.cache_hierarchy.ruby_system.m_outstandReqHistSeqr::samples      3075448                       (Unspecified)
board.cache_hierarchy.ruby_system.m_outstandReqHistSeqr::mean            1                       (Unspecified)
board.cache_hierarchy.ruby_system.m_outstandReqHistSeqr::gmean            1                       (Unspecified)
board.cache_hierarchy.ruby_system.m_outstandReqHistSeqr |           0      0.00%      0.00% |     3075448    100.00%    100.00% |           0      0.00%    100.00% |           0      0.00%    100.00% |           0      0.00%    100.00% |           0      0.00%    100.00% |           0      0.00%    100.00% |           0      0.00%    100.00% |           0      0.00%    100.00% |           0      0.00%    100.00% (Unspecified)
board.cache_hierarchy.ruby_system.m_outstandReqHistSeqr::total      3075448                       (Unspecified)
board.cache_hierarchy.ruby_system.m_latencyHistSeqr::bucket_size          128                       (Unspecified)
board.cache_hierarchy.ruby_system.m_latencyHistSeqr::max_bucket         1279                       (Unspecified)
board.cache_hierarchy.ruby_system.m_latencyHistSeqr::samples      3075441                       (Unspecified)
board.cache_hierarchy.ruby_system.m_latencyHistSeqr::mean     1.144494                       (Unspecified)
board.cache_hierarchy.ruby_system.m_latencyHistSeqr::gmean     1.006819                       (Unspecified)
board.cache_hierarchy.ruby_system.m_latencyHistSeqr::stdev     5.720007                       (Unspecified)
board.cache_hierarchy.ruby_system.m_latencyHistSeqr |     3073335     99.93%     99.93% |        1943      0.06%     99.99% |          50      0.00%    100.00% |          51      0.00%    100.00% |          26      0.00%    100.00% |          15      0.00%    100.00% |           6      0.00%    100.00% |          15      0.00%    100.00% |           0      0.00%    100.00% |           0      0.00%    100.00% (Unspecified)
board.cache_hierarchy.ruby_system.m_latencyHistSeqr::total      3075441                       (Unspecified)
board.cache_hierarchy.ruby_system.m_hitLatencyHistSeqr::bucket_size            1                       (Unspecified)
board.cache_hierarchy.ruby_system.m_hitLatencyHistSeqr::max_bucket            9                       (Unspecified)
board.cache_hierarchy.ruby_system.m_hitLatencyHistSeqr::samples      3069523                       (Unspecified)
board.cache_hierarchy.ruby_system.m_hitLatencyHistSeqr::mean            1                       (Unspecified)
board.cache_hierarchy.ruby_system.m_hitLatencyHistSeqr::gmean            1                       (Unspecified)
board.cache_hierarchy.ruby_system.m_hitLatencyHistSeqr |           0      0.00%      0.00% |     3069523    100.00%    100.00% |           0      0.00%    100.00% |           0      0.00%    100.00% |           0      0.00%    100.00% |           0      0.00%    100.00% |           0      0.00%    100.00% |           0      0.00%    100.00% |           0      0.00%    100.00% |           0      0.00%    100.00% (Unspecified)
board.cache_hierarchy.ruby_system.m_hitLatencyHistSeqr::total      3069523                       (Unspecified)
board.cache_hierarchy.ruby_system.m_missLatencyHistSeqr::bucket_size          128                       (Unspecified)
board.cache_hierarchy.ruby_system.m_missLatencyHistSeqr::max_bucket         1279                       (Unspecified)
board.cache_hierarchy.ruby_system.m_missLatencyHistSeqr::samples         5918                       (Unspecified)
board.cache_hierarchy.ruby_system.m_missLatencyHistSeqr::mean    76.090233                       (Unspecified)
board.cache_hierarchy.ruby_system.m_missLatencyHistSeqr::gmean    34.174220                       (Unspecified)
board.cache_hierarchy.ruby_system.m_missLatencyHistSeqr::stdev   106.664069                       (Unspecified)
board.cache_hierarchy.ruby_system.m_missLatencyHistSeqr |        3812     64.41%     64.41% |        1943     32.83%     97.25% |          50      0.84%     98.09% |          51      0.86%     98.95% |          26      0.44%     99.39% |          15      0.25%     99.65% |           6      0.10%     99.75% |          15      0.25%    100.00% |           0      0.00%    100.00% |           0      0.00%    100.00% (Unspecified)
board.cache_hierarchy.ruby_system.m_missLatencyHistSeqr::total         5918                       (Unspecified)
board.cache_hierarchy.ruby_system.delayVCHist.vnet_0::bucket_size          256                       # delay histogram for vnet_0 (Unspecified)
board.cache_hierarchy.ruby_system.delayVCHist.vnet_0::max_bucket         2559                       # delay histogram for vnet_0 (Unspecified)
board.cache_hierarchy.ruby_system.delayVCHist.vnet_0::samples        11376                       # delay histogram for vnet_0 (Unspecified)
board.cache_hierarchy.ruby_system.delayVCHist.vnet_0::mean     0.993231                       # delay histogram for vnet_0 (Unspecified)
board.cache_hierarchy.ruby_system.delayVCHist.vnet_0::stdev    23.174944                       # delay histogram for vnet_0 (Unspecified)
board.cache_hierarchy.ruby_system.delayVCHist.vnet_0 |       11371     99.96%     99.96% |           1      0.01%     99.96% |           1      0.01%     99.97% |           1      0.01%     99.98% |           0      0.00%     99.98% |           1      0.01%     99.99% |           1      0.01%    100.00% |           0      0.00%    100.00% |           0      0.00%    100.00% |           0      0.00%    100.00% # delay histogram for vnet_0 (Unspecified)
board.cache_hierarchy.ruby_system.delayVCHist.vnet_0::total        11376                       # delay histogram for vnet_0 (Unspecified)
board.cache_hierarchy.ruby_system.delayVCHist.vnet_1::bucket_size            1                       # delay histogram for vnet_1 (Unspecified)
board.cache_hierarchy.ruby_system.delayVCHist.vnet_1::max_bucket            9                       # delay histogram for vnet_1 (Unspecified)
board.cache_hierarchy.ruby_system.delayVCHist.vnet_1::samples        12703                       # delay histogram for vnet_1 (Unspecified)
board.cache_hierarchy.ruby_system.delayVCHist.vnet_1::mean     0.192238                       # delay histogram for vnet_1 (Unspecified)
board.cache_hierarchy.ruby_system.delayVCHist.vnet_1::stdev     0.921008                       # delay histogram for vnet_1 (Unspecified)
board.cache_hierarchy.ruby_system.delayVCHist.vnet_1 |       12080     95.10%     95.10% |           0      0.00%     95.10% |         218      1.72%     96.81% |           0      0.00%     96.81% |         216      1.70%     98.51% |           0      0.00%     98.51% |         185      1.46%     99.97% |           0      0.00%     99.97% |           4      0.03%    100.00% |           0      0.00%    100.00% # delay histogram for vnet_1 (Unspecified)
board.cache_hierarchy.ruby_system.delayVCHist.vnet_1::total        12703                       # delay histogram for vnet_1 (Unspecified)
board.cache_hierarchy.ruby_system.delayVCHist.vnet_2::bucket_size            1                       # delay histogram for vnet_2 (Unspecified)
board.cache_hierarchy.ruby_system.delayVCHist.vnet_2::max_bucket            9                       # delay histogram for vnet_2 (Unspecified)
board.cache_hierarchy.ruby_system.delayVCHist.vnet_2::samples         1911                       # delay histogram for vnet_2 (Unspecified)
board.cache_hierarchy.ruby_system.delayVCHist.vnet_2 |        1911    100.00%    100.00% |           0      0.00%    100.00% |           0      0.00%    100.00% |           0      0.00%    100.00% |           0      0.00%    100.00% |           0      0.00%    100.00% |           0      0.00%    100.00% |           0      0.00%    100.00% |           0      0.00%    100.00% |           0      0.00%    100.00% # delay histogram for vnet_2 (Unspecified)
board.cache_hierarchy.ruby_system.delayVCHist.vnet_2::total         1911                       # delay histogram for vnet_2 (Unspecified)
board.cache_hierarchy.ruby_system.Directory_Controller.Fetch         2101      0.00%      0.00% (Unspecified)
board.cache_hierarchy.ruby_system.Directory_Controller.Data         1202      0.00%      0.00% (Unspecified)
board.cache_hierarchy.ruby_system.Directory_Controller.Memory_Data         2101      0.00%      0.00% (Unspecified)
board.cache_hierarchy.ruby_system.Directory_Controller.Memory_Ack         1202      0.00%      0.00% (Unspecified)
board.cache_hierarchy.ruby_system.Directory_Controller.CleanReplacement          899      0.00%      0.00% (Unspecified)
board.cache_hierarchy.ruby_system.Directory_Controller.I.Fetch         2101      0.00%      0.00% (Unspecified)
board.cache_hierarchy.ruby_system.Directory_Controller.M.Data         1202      0.00%      0.00% (Unspecified)
board.cache_hierarchy.ruby_system.Directory_Controller.M.CleanReplacement          899      0.00%      0.00% (Unspecified)
board.cache_hierarchy.ruby_system.Directory_Controller.IM.Memory_Data         2101      0.00%      0.00% (Unspecified)
board.cache_hierarchy.ruby_system.Directory_Controller.MI.Memory_Ack         1202      0.00%      0.00% (Unspecified)
board.cache_hierarchy.ruby_system.L1Cache_Controller.Load |       93874     11.99%     11.99% |       96575     12.33%     24.32% |       97863     12.50%     36.81% |       98703     12.60%     49.41% |      100068     12.78%     62.19% |       99557     12.71%     74.90% |       98710     12.60%     87.50% |       97864     12.50%    100.00% (Unspecified)
board.cache_hierarchy.ruby_system.L1Cache_Controller.Load::total       783214                       (Unspecified)
board.cache_hierarchy.ruby_system.L1Cache_Controller.Ifetch |      256169     11.97%     11.97% |      262089     12.25%     24.21% |      266873     12.47%     36.68% |      269993     12.61%     49.30% |      275063     12.85%     62.15% |      273165     12.76%     74.91% |      270019     12.62%     87.53% |      266889     12.47%    100.00% (Unspecified)
board.cache_hierarchy.ruby_system.L1Cache_Controller.Ifetch::total      2140260                       (Unspecified)
board.cache_hierarchy.ruby_system.L1Cache_Controller.Store |       19210     12.64%     12.64% |       18417     12.12%     24.77% |       18785     12.36%     37.13% |       19025     12.52%     49.65% |       19415     12.78%     62.43% |       19269     12.68%     75.11% |       19027     12.52%     87.64% |       18786     12.36%    100.00% (Unspecified)
board.cache_hierarchy.ruby_system.L1Cache_Controller.Store::total       151934                       (Unspecified)
board.cache_hierarchy.ruby_system.L1Cache_Controller.Inv |         645     36.86%     36.86% |         137      7.83%     44.69% |         134      7.66%     52.34% |         128      7.31%     59.66% |         159      9.09%     68.74% |         180     10.29%     79.03% |         159      9.09%     88.11% |         208     11.89%    100.00% (Unspecified)
board.cache_hierarchy.ruby_system.L1Cache_Controller.Inv::total         1750                       (Unspecified)
board.cache_hierarchy.ruby_system.L1Cache_Controller.L1_Replacement |         912     64.86%     64.86% |          71      5.05%     69.91% |          71      5.05%     74.96% |          71      5.05%     80.01% |          71      5.05%     85.06% |          71      5.05%     90.11% |          70      4.98%     95.09% |          69      4.91%    100.00% (Unspecified)
board.cache_hierarchy.ruby_system.L1Cache_Controller.L1_Replacement::total         1406                       (Unspecified)
board.cache_hierarchy.ruby_system.L1Cache_Controller.Fwd_GETX |          40     57.14%     57.14% |           5      7.14%     64.29% |           5      7.14%     71.43% |           5      7.14%     78.57% |           5      7.14%     85.71% |           4      5.71%     91.43% |           5      7.14%     98.57% |           1      1.43%    100.00% (Unspecified)
board.cache_hierarchy.ruby_system.L1Cache_Controller.Fwd_GETX::total           70                       (Unspecified)
board.cache_hierarchy.ruby_system.L1Cache_Controller.Fwd_GETS |          75     82.42%     82.42% |           9      9.89%     92.31% |           1      1.10%     93.41% |           1      1.10%     94.51% |           1      1.10%     95.60% |           1      1.10%     96.70% |           1      1.10%     97.80% |           2      2.20%    100.00% (Unspecified)
board.cache_hierarchy.ruby_system.L1Cache_Controller.Fwd_GETS::total           91                       (Unspecified)
board.cache_hierarchy.ruby_system.L1Cache_Controller.Data_Exclusive |         557     13.30%     13.30% |         526     12.56%     25.85% |         518     12.37%     38.22% |         517     12.34%     50.56% |         518     12.37%     62.93% |         519     12.39%     75.32% |         520     12.41%     87.73% |         514     12.27%    100.00% (Unspecified)
board.cache_hierarchy.ruby_system.L1Cache_Controller.Data_Exclusive::total         4189                       (Unspecified)
board.cache_hierarchy.ruby_system.L1Cache_Controller.DataS_fromL1 |           3      3.30%      3.30% |          27     29.67%     32.97% |          15     16.48%     49.45% |           9      9.89%     59.34% |           8      8.79%     68.13% |           8      8.79%     76.92% |           7      7.69%     84.62% |          14     15.38%    100.00% (Unspecified)
board.cache_hierarchy.ruby_system.L1Cache_Controller.DataS_fromL1::total           91                       (Unspecified)
board.cache_hierarchy.ruby_system.L1Cache_Controller.Data_all_Acks |         439     27.20%     27.20% |         146      9.05%     36.25% |         167     10.35%     46.59% |         172     10.66%     57.25% |         173     10.72%     67.97% |         173     10.72%     78.69% |         173     10.72%     89.41% |         171     10.59%    100.00% (Unspecified)
board.cache_hierarchy.ruby_system.L1Cache_Controller.Data_all_Acks::total         1614                       (Unspecified)
board.cache_hierarchy.ruby_system.L1Cache_Controller.Ack |          13     38.24%     38.24% |           2      5.88%     44.12% |           2      5.88%     50.00% |           2      5.88%     55.88% |           2      5.88%     61.76% |           2      5.88%     67.65% |           2      5.88%     73.53% |           9     26.47%    100.00% (Unspecified)
board.cache_hierarchy.ruby_system.L1Cache_Controller.Ack::total           34                       (Unspecified)
board.cache_hierarchy.ruby_system.L1Cache_Controller.Ack_all |           7     31.82%     31.82% |           2      9.09%     40.91% |           2      9.09%     50.00% |           2      9.09%     59.09% |           2      9.09%     68.18% |           2      9.09%     77.27% |           2      9.09%     86.36% |           3     13.64%    100.00% (Unspecified)
board.cache_hierarchy.ruby_system.L1Cache_Controller.Ack_all::total           22                       (Unspecified)
board.cache_hierarchy.ruby_system.L1Cache_Controller.WB_Ack |         512     69.00%     69.00% |          29      3.91%     72.91% |          34      4.58%     77.49% |          39      5.26%     82.75% |          30      4.04%     86.79% |          29      3.91%     90.70% |          35      4.72%     95.42% |          34      4.58%    100.00% (Unspecified)
board.cache_hierarchy.ruby_system.L1Cache_Controller.WB_Ack::total          742                       (Unspecified)
board.cache_hierarchy.ruby_system.L1Cache_Controller.Load_Linked |          33    100.00%    100.00% |           0      0.00%    100.00% |           0      0.00%    100.00% |           0      0.00%    100.00% |           0      0.00%    100.00% |           0      0.00%    100.00% |           0      0.00%    100.00% |           0      0.00%    100.00% (Unspecified)
board.cache_hierarchy.ruby_system.L1Cache_Controller.Load_Linked::total           33                       (Unspecified)
board.cache_hierarchy.ruby_system.L1Cache_Controller.LLSC_Data_all_Acks |           2    100.00%    100.00% |           0      0.00%    100.00% |           0      0.00%    100.00% |           0      0.00%    100.00% |           0      0.00%    100.00% |           0      0.00%    100.00% |           0      0.00%    100.00% |           0      0.00%    100.00% (Unspecified)
board.cache_hierarchy.ruby_system.L1Cache_Controller.LLSC_Data_all_Acks::total            2                       (Unspecified)
board.cache_hierarchy.ruby_system.L1Cache_Controller.LLSC_Timeout |          33    100.00%    100.00% |           0      0.00%    100.00% |           0      0.00%    100.00% |           0      0.00%    100.00% |           0      0.00%    100.00% |           0      0.00%    100.00% |           0      0.00%    100.00% |           0      0.00%    100.00% (Unspecified)
board.cache_hierarchy.ruby_system.L1Cache_Controller.LLSC_Timeout::total           33                       (Unspecified)
board.cache_hierarchy.ruby_system.L1Cache_Controller.NP.Load |         557     12.58%     12.58% |         553     12.49%     25.08% |         553     12.49%     37.57% |         553     12.49%     50.07% |         553     12.49%     62.56% |         553     12.49%     75.06% |         553     12.49%     87.55% |         551     12.45%    100.00% (Unspecified)
board.cache_hierarchy.ruby_system.L1Cache_Controller.NP.Load::total         4426                       (Unspecified)
board.cache_hierarchy.ruby_system.L1Cache_Controller.NP.Ifetch |         209     23.27%     23.27% |          98     10.91%     34.19% |          98     10.91%     45.10% |          98     10.91%     56.01% |          98     10.91%     66.93% |          98     10.91%     77.84% |          98     10.91%     88.75% |         101     11.25%    100.00% (Unspecified)
board.cache_hierarchy.ruby_system.L1Cache_Controller.NP.Ifetch::total          898                       (Unspecified)
board.cache_hierarchy.ruby_system.L1Cache_Controller.NP.Store |         193     48.01%     48.01% |          30      7.46%     55.47% |          30      7.46%     62.94% |          30      7.46%     70.40% |          30      7.46%     77.86% |          30      7.46%     85.32% |          29      7.21%     92.54% |          30      7.46%    100.00% (Unspecified)
board.cache_hierarchy.ruby_system.L1Cache_Controller.NP.Store::total          402                       (Unspecified)
board.cache_hierarchy.ruby_system.L1Cache_Controller.NP.Inv |          65     84.42%     84.42% |           1      1.30%     85.71% |           1      1.30%     87.01% |           3      3.90%     90.91% |           1      1.30%     92.21% |           1      1.30%     93.51% |           1      1.30%     94.81% |           4      5.19%    100.00% (Unspecified)
board.cache_hierarchy.ruby_system.L1Cache_Controller.NP.Inv::total           77                       (Unspecified)
board.cache_hierarchy.ruby_system.L1Cache_Controller.NP.Load_Linked |           2    100.00%    100.00% |           0      0.00%    100.00% |           0      0.00%    100.00% |           0      0.00%    100.00% |           0      0.00%    100.00% |           0      0.00%    100.00% |           0      0.00%    100.00% |           0      0.00%    100.00% (Unspecified)
board.cache_hierarchy.ruby_system.L1Cache_Controller.NP.Load_Linked::total            2                       (Unspecified)
board.cache_hierarchy.ruby_system.L1Cache_Controller.I.Load |           6     10.71%     10.71% |           7     12.50%     23.21% |           7     12.50%     35.71% |           6     10.71%     46.43% |           7     12.50%     58.93% |           8     14.29%     73.21% |           8     14.29%     87.50% |           7     12.50%    100.00% (Unspecified)
board.cache_hierarchy.ruby_system.L1Cache_Controller.I.Load::total           56                       (Unspecified)
board.cache_hierarchy.ruby_system.L1Cache_Controller.I.Ifetch |          33     32.35%     32.35% |          10      9.80%     42.16% |          10      9.80%     51.96% |          10      9.80%     61.76% |          10      9.80%     71.57% |          10      9.80%     81.37% |          10      9.80%     91.18% |           9      8.82%    100.00% (Unspecified)
board.cache_hierarchy.ruby_system.L1Cache_Controller.I.Ifetch::total          102                       (Unspecified)
board.cache_hierarchy.ruby_system.L1Cache_Controller.I.Store |           1     10.00%     10.00% |           1     10.00%     20.00% |           2     20.00%     40.00% |           1     10.00%     50.00% |           1     10.00%     60.00% |           1     10.00%     70.00% |           2     20.00%     90.00% |           1     10.00%    100.00% (Unspecified)
board.cache_hierarchy.ruby_system.L1Cache_Controller.I.Store::total           10                       (Unspecified)
board.cache_hierarchy.ruby_system.L1Cache_Controller.I.L1_Replacement |         336     58.64%     58.64% |          39      6.81%     65.45% |          34      5.93%     71.38% |          27      4.71%     76.09% |          38      6.63%     82.72% |          38      6.63%     89.35% |          32      5.58%     94.94% |          29      5.06%    100.00% (Unspecified)
board.cache_hierarchy.ruby_system.L1Cache_Controller.I.L1_Replacement::total          573                       (Unspecified)
board.cache_hierarchy.ruby_system.L1Cache_Controller.S.Load |        8402     11.31%     11.31% |        9108     12.26%     23.57% |        9311     12.54%     36.11% |        9431     12.70%     48.81% |        9626     12.96%     61.77% |        9553     12.86%     74.63% |        9429     12.69%     87.32% |        9415     12.68%    100.00% (Unspecified)
board.cache_hierarchy.ruby_system.L1Cache_Controller.S.Load::total        74275                       (Unspecified)
board.cache_hierarchy.ruby_system.L1Cache_Controller.S.Ifetch |      255927     11.96%     11.96% |      261981     12.25%     24.21% |      266765     12.47%     36.68% |      269885     12.62%     49.30% |      274955     12.85%     62.15% |      273057     12.76%     74.91% |      269911     12.62%     87.53% |      266779     12.47%    100.00% (Unspecified)
board.cache_hierarchy.ruby_system.L1Cache_Controller.S.Ifetch::total      2139260                       (Unspecified)
board.cache_hierarchy.ruby_system.L1Cache_Controller.S.Store |           7     31.82%     31.82% |           2      9.09%     40.91% |           2      9.09%     50.00% |           2      9.09%     59.09% |           2      9.09%     68.18% |           2      9.09%     77.27% |           2      9.09%     86.36% |           3     13.64%    100.00% (Unspecified)
board.cache_hierarchy.ruby_system.L1Cache_Controller.S.Store::total           22                       (Unspecified)
board.cache_hierarchy.ruby_system.L1Cache_Controller.S.Inv |         385     33.62%     33.62% |         110      9.61%     43.23% |         110      9.61%     52.84% |         108      9.43%     62.27% |         110      9.61%     71.88% |         109      9.52%     81.40% |         110      9.61%     91.00% |         103      9.00%    100.00% (Unspecified)
board.cache_hierarchy.ruby_system.L1Cache_Controller.S.Inv::total         1145                       (Unspecified)
board.cache_hierarchy.ruby_system.L1Cache_Controller.S.L1_Replacement |          64     70.33%     70.33% |           3      3.30%     73.63% |           3      3.30%     76.92% |           5      5.49%     82.42% |           3      3.30%     85.71% |           4      4.40%     90.11% |           3      3.30%     93.41% |           6      6.59%    100.00% (Unspecified)
board.cache_hierarchy.ruby_system.L1Cache_Controller.S.L1_Replacement::total           91                       (Unspecified)
board.cache_hierarchy.ruby_system.L1Cache_Controller.E.Load |       21169     17.38%     17.38% |       14756     12.12%     29.50% |        9940      8.16%     37.67% |       22671     18.62%     56.28% |        7676      6.30%     62.59% |       13947     11.45%     74.04% |        9062      7.44%     81.48% |       22546     18.52%    100.00% (Unspecified)
board.cache_hierarchy.ruby_system.L1Cache_Controller.E.Load::total       121767                       (Unspecified)
board.cache_hierarchy.ruby_system.L1Cache_Controller.E.Store |          18     46.15%     46.15% |           3      7.69%     53.85% |           3      7.69%     61.54% |           3      7.69%     69.23% |           2      5.13%     74.36% |           3      7.69%     82.05% |           4     10.26%     92.31% |           3      7.69%    100.00% (Unspecified)
board.cache_hierarchy.ruby_system.L1Cache_Controller.E.Store::total           39                       (Unspecified)
board.cache_hierarchy.ruby_system.L1Cache_Controller.E.Inv |          90     34.48%     34.48% |           0      0.00%     34.48% |           0      0.00%     34.48% |           1      0.38%     34.87% |          24      9.20%     44.06% |          43     16.48%     60.54% |          26      9.96%     70.50% |          77     29.50%    100.00% (Unspecified)
board.cache_hierarchy.ruby_system.L1Cache_Controller.E.Inv::total          261                       (Unspecified)
board.cache_hierarchy.ruby_system.L1Cache_Controller.E.L1_Replacement |          38     15.45%     15.45% |          29     11.79%     27.24% |          30     12.20%     39.43% |          31     12.60%     52.03% |          30     12.20%     64.23% |          29     11.79%     76.02% |          30     12.20%     88.21% |          29     11.79%    100.00% (Unspecified)
board.cache_hierarchy.ruby_system.L1Cache_Controller.E.L1_Replacement::total          246                       (Unspecified)
board.cache_hierarchy.ruby_system.L1Cache_Controller.E.Fwd_GETS |          11     42.31%     42.31% |           9     34.62%     76.92% |           1      3.85%     80.77% |           1      3.85%     84.62% |           1      3.85%     88.46% |           1      3.85%     92.31% |           1      3.85%     96.15% |           1      3.85%    100.00% (Unspecified)
board.cache_hierarchy.ruby_system.L1Cache_Controller.E.Fwd_GETS::total           26                       (Unspecified)
board.cache_hierarchy.ruby_system.L1Cache_Controller.E.Load_Linked |           1    100.00%    100.00% |           0      0.00%    100.00% |           0      0.00%    100.00% |           0      0.00%    100.00% |           0      0.00%    100.00% |           0      0.00%    100.00% |           0      0.00%    100.00% |           0      0.00%    100.00% (Unspecified)
board.cache_hierarchy.ruby_system.L1Cache_Controller.E.Load_Linked::total            1                       (Unspecified)
board.cache_hierarchy.ruby_system.L1Cache_Controller.M.Load |       63740     10.94%     10.94% |       72151     12.38%     23.32% |       78052     13.40%     36.72% |       66042     11.33%     48.05% |       82206     14.11%     62.16% |       75496     12.96%     75.11% |       79658     13.67%     88.79% |       65345     11.21%    100.00% (Unspecified)
board.cache_hierarchy.ruby_system.L1Cache_Controller.M.Load::total       582690                       (Unspecified)
board.cache_hierarchy.ruby_system.L1Cache_Controller.M.Store |       18959     12.52%     12.52% |       18381     12.14%     24.66% |       18748     12.38%     37.04% |       18989     12.54%     49.58% |       19380     12.80%     62.38% |       19233     12.70%     75.08% |       18990     12.54%     87.62% |       18749     12.38%    100.00% (Unspecified)
board.cache_hierarchy.ruby_system.L1Cache_Controller.M.Store::total       151429                       (Unspecified)
board.cache_hierarchy.ruby_system.L1Cache_Controller.M.Inv |         105     39.33%     39.33% |          26      9.74%     49.06% |          23      8.61%     57.68% |          16      5.99%     63.67% |          24      8.99%     72.66% |          27     10.11%     82.77% |          22      8.24%     91.01% |          24      8.99%    100.00% (Unspecified)
board.cache_hierarchy.ruby_system.L1Cache_Controller.M.Inv::total          267                       (Unspecified)
board.cache_hierarchy.ruby_system.L1Cache_Controller.M.L1_Replacement |         474     95.56%     95.56% |           0      0.00%     95.56% |           4      0.81%     96.37% |           8      1.61%     97.98% |           0      0.00%     97.98% |           0      0.00%     97.98% |           5      1.01%     98.99% |           5      1.01%    100.00% (Unspecified)
board.cache_hierarchy.ruby_system.L1Cache_Controller.M.L1_Replacement::total          496                       (Unspecified)
board.cache_hierarchy.ruby_system.L1Cache_Controller.M.Fwd_GETX |          40     57.14%     57.14% |           5      7.14%     64.29% |           5      7.14%     71.43% |           5      7.14%     78.57% |           5      7.14%     85.71% |           4      5.71%     91.43% |           5      7.14%     98.57% |           1      1.43%    100.00% (Unspecified)
board.cache_hierarchy.ruby_system.L1Cache_Controller.M.Fwd_GETX::total           70                       (Unspecified)
board.cache_hierarchy.ruby_system.L1Cache_Controller.M.Fwd_GETS |          64     98.46%     98.46% |           0      0.00%     98.46% |           0      0.00%     98.46% |           0      0.00%     98.46% |           0      0.00%     98.46% |           0      0.00%     98.46% |           0      0.00%     98.46% |           1      1.54%    100.00% (Unspecified)
board.cache_hierarchy.ruby_system.L1Cache_Controller.M.Fwd_GETS::total           65                       (Unspecified)
board.cache_hierarchy.ruby_system.L1Cache_Controller.M.Load_Linked |          30    100.00%    100.00% |           0      0.00%    100.00% |           0      0.00%    100.00% |           0      0.00%    100.00% |           0      0.00%    100.00% |           0      0.00%    100.00% |           0      0.00%    100.00% |           0      0.00%    100.00% (Unspecified)
board.cache_hierarchy.ruby_system.L1Cache_Controller.M.Load_Linked::total           30                       (Unspecified)
board.cache_hierarchy.ruby_system.L1Cache_Controller.IS.Data_Exclusive |         557     13.30%     13.30% |         526     12.56%     25.85% |         518     12.37%     38.22% |         517     12.34%     50.56% |         518     12.37%     62.93% |         519     12.39%     75.32% |         520     12.41%     87.73% |         514     12.27%    100.00% (Unspecified)
board.cache_hierarchy.ruby_system.L1Cache_Controller.IS.Data_Exclusive::total         4189                       (Unspecified)
board.cache_hierarchy.ruby_system.L1Cache_Controller.IS.DataS_fromL1 |           3      3.30%      3.30% |          27     29.67%     32.97% |          15     16.48%     49.45% |           9      9.89%     59.34% |           8      8.79%     68.13% |           8      8.79%     76.92% |           7      7.69%     84.62% |          14     15.38%    100.00% (Unspecified)
board.cache_hierarchy.ruby_system.L1Cache_Controller.IS.DataS_fromL1::total           91                       (Unspecified)
board.cache_hierarchy.ruby_system.L1Cache_Controller.IS.Data_all_Acks |         245     20.38%     20.38% |         115      9.57%     29.95% |         135     11.23%     41.18% |         141     11.73%     52.91% |         142     11.81%     64.73% |         142     11.81%     76.54% |         142     11.81%     88.35% |         140     11.65%    100.00% (Unspecified)
board.cache_hierarchy.ruby_system.L1Cache_Controller.IS.Data_all_Acks::total         1202                       (Unspecified)
board.cache_hierarchy.ruby_system.L1Cache_Controller.IM.Data_all_Acks |         194     47.09%     47.09% |          31      7.52%     54.61% |          32      7.77%     62.38% |          31      7.52%     69.90% |          31      7.52%     77.43% |          31      7.52%     84.95% |          31      7.52%     92.48% |          31      7.52%    100.00% (Unspecified)
board.cache_hierarchy.ruby_system.L1Cache_Controller.IM.Data_all_Acks::total          412                       (Unspecified)
board.cache_hierarchy.ruby_system.L1Cache_Controller.IM.LLSC_Data_all_Acks |           2    100.00%    100.00% |           0      0.00%    100.00% |           0      0.00%    100.00% |           0      0.00%    100.00% |           0      0.00%    100.00% |           0      0.00%    100.00% |           0      0.00%    100.00% |           0      0.00%    100.00% (Unspecified)
board.cache_hierarchy.ruby_system.L1Cache_Controller.IM.LLSC_Data_all_Acks::total            2                       (Unspecified)
board.cache_hierarchy.ruby_system.L1Cache_Controller.SM.Ack |          13     38.24%     38.24% |           2      5.88%     44.12% |           2      5.88%     50.00% |           2      5.88%     55.88% |           2      5.88%     61.76% |           2      5.88%     67.65% |           2      5.88%     73.53% |           9     26.47%    100.00% (Unspecified)
board.cache_hierarchy.ruby_system.L1Cache_Controller.SM.Ack::total           34                       (Unspecified)
board.cache_hierarchy.ruby_system.L1Cache_Controller.SM.Ack_all |           7     31.82%     31.82% |           2      9.09%     40.91% |           2      9.09%     50.00% |           2      9.09%     59.09% |           2      9.09%     68.18% |           2      9.09%     77.27% |           2      9.09%     86.36% |           3     13.64%    100.00% (Unspecified)
board.cache_hierarchy.ruby_system.L1Cache_Controller.SM.Ack_all::total           22                       (Unspecified)
board.cache_hierarchy.ruby_system.L1Cache_Controller.M_I.WB_Ack |         512     69.00%     69.00% |          29      3.91%     72.91% |          34      4.58%     77.49% |          39      5.26%     82.75% |          30      4.04%     86.79% |          29      3.91%     90.70% |          35      4.72%     95.42% |          34      4.58%    100.00% (Unspecified)
board.cache_hierarchy.ruby_system.L1Cache_Controller.M_I.WB_Ack::total          742                       (Unspecified)
board.cache_hierarchy.ruby_system.L1Cache_Controller.LLSC_E.Store |           2    100.00%    100.00% |           0      0.00%    100.00% |           0      0.00%    100.00% |           0      0.00%    100.00% |           0      0.00%    100.00% |           0      0.00%    100.00% |           0      0.00%    100.00% |           0      0.00%    100.00% (Unspecified)
board.cache_hierarchy.ruby_system.L1Cache_Controller.LLSC_E.Store::total            2                       (Unspecified)
board.cache_hierarchy.ruby_system.L1Cache_Controller.LLSC_E.LLSC_Timeout |           1    100.00%    100.00% |           0      0.00%    100.00% |           0      0.00%    100.00% |           0      0.00%    100.00% |           0      0.00%    100.00% |           0      0.00%    100.00% |           0      0.00%    100.00% |           0      0.00%    100.00% (Unspecified)
board.cache_hierarchy.ruby_system.L1Cache_Controller.LLSC_E.LLSC_Timeout::total            1                       (Unspecified)
board.cache_hierarchy.ruby_system.L1Cache_Controller.LLSC_M.Store |          30    100.00%    100.00% |           0      0.00%    100.00% |           0      0.00%    100.00% |           0      0.00%    100.00% |           0      0.00%    100.00% |           0      0.00%    100.00% |           0      0.00%    100.00% |           0      0.00%    100.00% (Unspecified)
board.cache_hierarchy.ruby_system.L1Cache_Controller.LLSC_M.Store::total           30                       (Unspecified)
board.cache_hierarchy.ruby_system.L1Cache_Controller.LLSC_M.LLSC_Timeout |          32    100.00%    100.00% |           0      0.00%    100.00% |           0      0.00%    100.00% |           0      0.00%    100.00% |           0      0.00%    100.00% |           0      0.00%    100.00% |           0      0.00%    100.00% |           0      0.00%    100.00% (Unspecified)
board.cache_hierarchy.ruby_system.L1Cache_Controller.LLSC_M.LLSC_Timeout::total           32                       (Unspecified)
board.cache_hierarchy.ruby_system.L2Cache_Controller.L1_GET_INSTR         1007      0.00%      0.00% (Unspecified)
board.cache_hierarchy.ruby_system.L2Cache_Controller.L1_GETS         4511      0.00%      0.00% (Unspecified)
board.cache_hierarchy.ruby_system.L2Cache_Controller.L1_GETX          436      0.00%      0.00% (Unspecified)
board.cache_hierarchy.ruby_system.L2Cache_Controller.L1_UPGRADE           22      0.00%      0.00% (Unspecified)
board.cache_hierarchy.ruby_system.L2Cache_Controller.L1_PUTX          742      0.00%      0.00% (Unspecified)
board.cache_hierarchy.ruby_system.L2Cache_Controller.L2_Replacement          957      0.00%      0.00% (Unspecified)
board.cache_hierarchy.ruby_system.L2Cache_Controller.L2_Replacement_clean         1144      0.00%      0.00% (Unspecified)
board.cache_hierarchy.ruby_system.L2Cache_Controller.Mem_Data         2101      0.00%      0.00% (Unspecified)
board.cache_hierarchy.ruby_system.L2Cache_Controller.Mem_Ack         2101      0.00%      0.00% (Unspecified)
board.cache_hierarchy.ruby_system.L2Cache_Controller.WB_Data          332      0.00%      0.00% (Unspecified)
board.cache_hierarchy.ruby_system.L2Cache_Controller.WB_Data_clean           26      0.00%      0.00% (Unspecified)
board.cache_hierarchy.ruby_system.L2Cache_Controller.Ack          723      0.00%      0.00% (Unspecified)
board.cache_hierarchy.ruby_system.L2Cache_Controller.Ack_all          726      0.00%      0.00% (Unspecified)
board.cache_hierarchy.ruby_system.L2Cache_Controller.Unblock           91      0.00%      0.00% (Unspecified)
board.cache_hierarchy.ruby_system.L2Cache_Controller.Exclusive_Unblock         4625      0.00%      0.00% (Unspecified)
board.cache_hierarchy.ruby_system.L2Cache_Controller.NP.L1_GET_INSTR          274      0.00%      0.00% (Unspecified)
board.cache_hierarchy.ruby_system.L2Cache_Controller.NP.L1_GETS         1485      0.00%      0.00% (Unspecified)
board.cache_hierarchy.ruby_system.L2Cache_Controller.NP.L1_GETX          342      0.00%      0.00% (Unspecified)
board.cache_hierarchy.ruby_system.L2Cache_Controller.SS.L1_GET_INSTR          624      0.00%      0.00% (Unspecified)
board.cache_hierarchy.ruby_system.L2Cache_Controller.SS.L1_GETS          176      0.00%      0.00% (Unspecified)
board.cache_hierarchy.ruby_system.L2Cache_Controller.SS.L1_UPGRADE           22      0.00%      0.00% (Unspecified)
board.cache_hierarchy.ruby_system.L2Cache_Controller.SS.L2_Replacement           36      0.00%      0.00% (Unspecified)
board.cache_hierarchy.ruby_system.L2Cache_Controller.SS.L2_Replacement_clean          429      0.00%      0.00% (Unspecified)
board.cache_hierarchy.ruby_system.L2Cache_Controller.M.L1_GETS         2710      0.00%      0.00% (Unspecified)
board.cache_hierarchy.ruby_system.L2Cache_Controller.M.L1_GETX            2      0.00%      0.00% (Unspecified)
board.cache_hierarchy.ruby_system.L2Cache_Controller.M.L2_Replacement          703      0.00%      0.00% (Unspecified)
board.cache_hierarchy.ruby_system.L2Cache_Controller.M.L2_Replacement_clean          405      0.00%      0.00% (Unspecified)
board.cache_hierarchy.ruby_system.L2Cache_Controller.MT.L1_GETS           91      0.00%      0.00% (Unspecified)
board.cache_hierarchy.ruby_system.L2Cache_Controller.MT.L1_GETX           70      0.00%      0.00% (Unspecified)
board.cache_hierarchy.ruby_system.L2Cache_Controller.MT.L1_PUTX          742      0.00%      0.00% (Unspecified)
board.cache_hierarchy.ruby_system.L2Cache_Controller.MT.L2_Replacement          218      0.00%      0.00% (Unspecified)
board.cache_hierarchy.ruby_system.L2Cache_Controller.MT.L2_Replacement_clean          310      0.00%      0.00% (Unspecified)
board.cache_hierarchy.ruby_system.L2Cache_Controller.M_I.L1_GET_INSTR            7      0.00%      0.00% (Unspecified)
board.cache_hierarchy.ruby_system.L2Cache_Controller.M_I.L1_GETS           17      0.00%      0.00% (Unspecified)
board.cache_hierarchy.ruby_system.L2Cache_Controller.M_I.Mem_Ack         2101      0.00%      0.00% (Unspecified)
board.cache_hierarchy.ruby_system.L2Cache_Controller.MT_I.WB_Data           22      0.00%      0.00% (Unspecified)
board.cache_hierarchy.ruby_system.L2Cache_Controller.MT_I.Ack_all          196      0.00%      0.00% (Unspecified)
board.cache_hierarchy.ruby_system.L2Cache_Controller.MCT_I.WB_Data          245      0.00%      0.00% (Unspecified)
board.cache_hierarchy.ruby_system.L2Cache_Controller.MCT_I.Ack_all           65      0.00%      0.00% (Unspecified)
board.cache_hierarchy.ruby_system.L2Cache_Controller.I_I.Ack          640      0.00%      0.00% (Unspecified)
board.cache_hierarchy.ruby_system.L2Cache_Controller.I_I.Ack_all          429      0.00%      0.00% (Unspecified)
board.cache_hierarchy.ruby_system.L2Cache_Controller.S_I.Ack           83      0.00%      0.00% (Unspecified)
board.cache_hierarchy.ruby_system.L2Cache_Controller.S_I.Ack_all           36      0.00%      0.00% (Unspecified)
board.cache_hierarchy.ruby_system.L2Cache_Controller.ISS.L1_GETS            6      0.00%      0.00% (Unspecified)
board.cache_hierarchy.ruby_system.L2Cache_Controller.ISS.Mem_Data         1479      0.00%      0.00% (Unspecified)
board.cache_hierarchy.ruby_system.L2Cache_Controller.IS.L1_GET_INSTR          102      0.00%      0.00% (Unspecified)
board.cache_hierarchy.ruby_system.L2Cache_Controller.IS.L1_GETS           14      0.00%      0.00% (Unspecified)
board.cache_hierarchy.ruby_system.L2Cache_Controller.IS.Mem_Data          280      0.00%      0.00% (Unspecified)
board.cache_hierarchy.ruby_system.L2Cache_Controller.IM.L1_GETX            7      0.00%      0.00% (Unspecified)
board.cache_hierarchy.ruby_system.L2Cache_Controller.IM.Mem_Data          342      0.00%      0.00% (Unspecified)
board.cache_hierarchy.ruby_system.L2Cache_Controller.SS_MB.L1_GETS            2      0.00%      0.00% (Unspecified)
board.cache_hierarchy.ruby_system.L2Cache_Controller.SS_MB.Exclusive_Unblock           22      0.00%      0.00% (Unspecified)
board.cache_hierarchy.ruby_system.L2Cache_Controller.MT_MB.L1_GETX           15      0.00%      0.00% (Unspecified)
board.cache_hierarchy.ruby_system.L2Cache_Controller.MT_MB.Exclusive_Unblock         4603      0.00%      0.00% (Unspecified)
board.cache_hierarchy.ruby_system.L2Cache_Controller.MT_IIB.L1_GETS            8      0.00%      0.00% (Unspecified)
board.cache_hierarchy.ruby_system.L2Cache_Controller.MT_IIB.WB_Data           65      0.00%      0.00% (Unspecified)
board.cache_hierarchy.ruby_system.L2Cache_Controller.MT_IIB.WB_Data_clean           26      0.00%      0.00% (Unspecified)
board.cache_hierarchy.ruby_system.L2Cache_Controller.MT_SB.L1_GETS            2      0.00%      0.00% (Unspecified)
board.cache_hierarchy.ruby_system.L2Cache_Controller.MT_SB.Unblock           91      0.00%      0.00% (Unspecified)
board.cache_hierarchy.ruby_system.RequestType.LD.latency_hist_seqr::bucket_size          128                       (Unspecified)
board.cache_hierarchy.ruby_system.RequestType.LD.latency_hist_seqr::max_bucket         1279                       (Unspecified)
board.cache_hierarchy.ruby_system.RequestType.LD.latency_hist_seqr::samples       783214                       (Unspecified)
board.cache_hierarchy.ruby_system.RequestType.LD.latency_hist_seqr::mean     1.381515                       (Unspecified)
board.cache_hierarchy.ruby_system.RequestType.LD.latency_hist_seqr::gmean     1.019742                       (Unspecified)
board.cache_hierarchy.ruby_system.RequestType.LD.latency_hist_seqr::stdev     9.135909                       (Unspecified)
board.cache_hierarchy.ruby_system.RequestType.LD.latency_hist_seqr |      781818     99.82%     99.82% |        1304      0.17%     99.99% |          28      0.00%     99.99% |          18      0.00%     99.99% |          18      0.00%    100.00% |          13      0.00%    100.00% |           6      0.00%    100.00% |           9      0.00%    100.00% |           0      0.00%    100.00% |           0      0.00%    100.00% (Unspecified)
board.cache_hierarchy.ruby_system.RequestType.LD.latency_hist_seqr::total       783214                       (Unspecified)
board.cache_hierarchy.ruby_system.RequestType.LD.hit_latency_hist_seqr::bucket_size            1                       (Unspecified)
board.cache_hierarchy.ruby_system.RequestType.LD.hit_latency_hist_seqr::max_bucket            9                       (Unspecified)
board.cache_hierarchy.ruby_system.RequestType.LD.hit_latency_hist_seqr::samples       778732                       (Unspecified)
board.cache_hierarchy.ruby_system.RequestType.LD.hit_latency_hist_seqr::mean            1                       (Unspecified)
board.cache_hierarchy.ruby_system.RequestType.LD.hit_latency_hist_seqr::gmean            1                       (Unspecified)
board.cache_hierarchy.ruby_system.RequestType.LD.hit_latency_hist_seqr |           0      0.00%      0.00% |      778732    100.00%    100.00% |           0      0.00%    100.00% |           0      0.00%    100.00% |           0      0.00%    100.00% |           0      0.00%    100.00% |           0      0.00%    100.00% |           0      0.00%    100.00% |           0      0.00%    100.00% |           0      0.00%    100.00% (Unspecified)
board.cache_hierarchy.ruby_system.RequestType.LD.hit_latency_hist_seqr::total       778732                       (Unspecified)
board.cache_hierarchy.ruby_system.RequestType.LD.miss_latency_hist_seqr::bucket_size          128                       (Unspecified)
board.cache_hierarchy.ruby_system.RequestType.LD.miss_latency_hist_seqr::max_bucket         1279                       (Unspecified)
board.cache_hierarchy.ruby_system.RequestType.LD.miss_latency_hist_seqr::samples         4482                       (Unspecified)
board.cache_hierarchy.ruby_system.RequestType.LD.miss_latency_hist_seqr::mean    67.668452                       (Unspecified)
board.cache_hierarchy.ruby_system.RequestType.LD.miss_latency_hist_seqr::gmean    30.452202                       (Unspecified)
board.cache_hierarchy.ruby_system.RequestType.LD.miss_latency_hist_seqr::stdev   100.837468                       (Unspecified)
board.cache_hierarchy.ruby_system.RequestType.LD.miss_latency_hist_seqr |        3086     68.85%     68.85% |        1304     29.09%     97.95% |          28      0.62%     98.57% |          18      0.40%     98.97% |          18      0.40%     99.38% |          13      0.29%     99.67% |           6      0.13%     99.80% |           9      0.20%    100.00% |           0      0.00%    100.00% |           0      0.00%    100.00% (Unspecified)
board.cache_hierarchy.ruby_system.RequestType.LD.miss_latency_hist_seqr::total         4482                       (Unspecified)
board.cache_hierarchy.ruby_system.RequestType.ST.latency_hist_seqr::bucket_size          128                       (Unspecified)
board.cache_hierarchy.ruby_system.RequestType.ST.latency_hist_seqr::max_bucket         1279                       (Unspecified)
board.cache_hierarchy.ruby_system.RequestType.ST.latency_hist_seqr::samples       151901                       (Unspecified)
board.cache_hierarchy.ruby_system.RequestType.ST.latency_hist_seqr::mean     1.430965                       (Unspecified)
board.cache_hierarchy.ruby_system.RequestType.ST.latency_hist_seqr::gmean     1.013483                       (Unspecified)
board.cache_hierarchy.ruby_system.RequestType.ST.latency_hist_seqr::stdev    10.240152                       (Unspecified)
board.cache_hierarchy.ruby_system.RequestType.ST.latency_hist_seqr |      151555     99.77%     99.77% |         313      0.21%     99.98% |          10      0.01%     99.98% |          14      0.01%     99.99% |           6      0.00%    100.00% |           1      0.00%    100.00% |           0      0.00%    100.00% |           2      0.00%    100.00% |           0      0.00%    100.00% |           0      0.00%    100.00% (Unspecified)
board.cache_hierarchy.ruby_system.RequestType.ST.latency_hist_seqr::total       151901                       (Unspecified)
board.cache_hierarchy.ruby_system.RequestType.ST.hit_latency_hist_seqr::bucket_size            1                       (Unspecified)
board.cache_hierarchy.ruby_system.RequestType.ST.hit_latency_hist_seqr::max_bucket            9                       (Unspecified)
board.cache_hierarchy.ruby_system.RequestType.ST.hit_latency_hist_seqr::samples       151467                       (Unspecified)
board.cache_hierarchy.ruby_system.RequestType.ST.hit_latency_hist_seqr::mean            1                       (Unspecified)
board.cache_hierarchy.ruby_system.RequestType.ST.hit_latency_hist_seqr::gmean            1                       (Unspecified)
board.cache_hierarchy.ruby_system.RequestType.ST.hit_latency_hist_seqr |           0      0.00%      0.00% |      151467    100.00%    100.00% |           0      0.00%    100.00% |           0      0.00%    100.00% |           0      0.00%    100.00% |           0      0.00%    100.00% |           0      0.00%    100.00% |           0      0.00%    100.00% |           0      0.00%    100.00% |           0      0.00%    100.00% (Unspecified)
board.cache_hierarchy.ruby_system.RequestType.ST.hit_latency_hist_seqr::total       151467                       (Unspecified)
board.cache_hierarchy.ruby_system.RequestType.ST.miss_latency_hist_seqr::bucket_size          128                       (Unspecified)
board.cache_hierarchy.ruby_system.RequestType.ST.miss_latency_hist_seqr::max_bucket         1279                       (Unspecified)
board.cache_hierarchy.ruby_system.RequestType.ST.miss_latency_hist_seqr::samples          434                       (Unspecified)
board.cache_hierarchy.ruby_system.RequestType.ST.miss_latency_hist_seqr::mean   151.838710                       (Unspecified)
board.cache_hierarchy.ruby_system.RequestType.ST.miss_latency_hist_seqr::gmean   108.574868                       (Unspecified)
board.cache_hierarchy.ruby_system.RequestType.ST.miss_latency_hist_seqr::stdev   118.517115                       (Unspecified)
board.cache_hierarchy.ruby_system.RequestType.ST.miss_latency_hist_seqr |          88     20.28%     20.28% |         313     72.12%     92.40% |          10      2.30%     94.70% |          14      3.23%     97.93% |           6      1.38%     99.31% |           1      0.23%     99.54% |           0      0.00%     99.54% |           2      0.46%    100.00% |           0      0.00%    100.00% |           0      0.00%    100.00% (Unspecified)
board.cache_hierarchy.ruby_system.RequestType.ST.miss_latency_hist_seqr::total          434                       (Unspecified)
board.cache_hierarchy.ruby_system.RequestType.IFETCH.latency_hist_seqr::bucket_size          128                       (Unspecified)
board.cache_hierarchy.ruby_system.RequestType.IFETCH.latency_hist_seqr::max_bucket         1279                       (Unspecified)
board.cache_hierarchy.ruby_system.RequestType.IFETCH.latency_hist_seqr::samples      2140260                       (Unspecified)
board.cache_hierarchy.ruby_system.RequestType.IFETCH.latency_hist_seqr::mean     1.037253                       (Unspecified)
board.cache_hierarchy.ruby_system.RequestType.IFETCH.latency_hist_seqr::gmean     1.001657                       (Unspecified)
board.cache_hierarchy.ruby_system.RequestType.IFETCH.latency_hist_seqr::stdev     2.992653                       (Unspecified)
board.cache_hierarchy.ruby_system.RequestType.IFETCH.latency_hist_seqr |     2139898     99.98%     99.98% |         324      0.02%    100.00% |          12      0.00%    100.00% |          19      0.00%    100.00% |           2      0.00%    100.00% |           1      0.00%    100.00% |           0      0.00%    100.00% |           4      0.00%    100.00% |           0      0.00%    100.00% |           0      0.00%    100.00% (Unspecified)
board.cache_hierarchy.ruby_system.RequestType.IFETCH.latency_hist_seqr::total      2140260                       (Unspecified)
board.cache_hierarchy.ruby_system.RequestType.IFETCH.hit_latency_hist_seqr::bucket_size            1                       (Unspecified)
board.cache_hierarchy.ruby_system.RequestType.IFETCH.hit_latency_hist_seqr::max_bucket            9                       (Unspecified)
board.cache_hierarchy.ruby_system.RequestType.IFETCH.hit_latency_hist_seqr::samples      2139260                       (Unspecified)
board.cache_hierarchy.ruby_system.RequestType.IFETCH.hit_latency_hist_seqr::mean            1                       (Unspecified)
board.cache_hierarchy.ruby_system.RequestType.IFETCH.hit_latency_hist_seqr::gmean            1                       (Unspecified)
board.cache_hierarchy.ruby_system.RequestType.IFETCH.hit_latency_hist_seqr |           0      0.00%      0.00% |     2139260    100.00%    100.00% |           0      0.00%    100.00% |           0      0.00%    100.00% |           0      0.00%    100.00% |           0      0.00%    100.00% |           0      0.00%    100.00% |           0      0.00%    100.00% |           0      0.00%    100.00% |           0      0.00%    100.00% (Unspecified)
board.cache_hierarchy.ruby_system.RequestType.IFETCH.hit_latency_hist_seqr::total      2139260                       (Unspecified)
board.cache_hierarchy.ruby_system.RequestType.IFETCH.miss_latency_hist_seqr::bucket_size          128                       (Unspecified)
board.cache_hierarchy.ruby_system.RequestType.IFETCH.miss_latency_hist_seqr::max_bucket         1279                       (Unspecified)
board.cache_hierarchy.ruby_system.RequestType.IFETCH.miss_latency_hist_seqr::samples         1000                       (Unspecified)
board.cache_hierarchy.ruby_system.RequestType.IFETCH.miss_latency_hist_seqr::mean    80.732000                       (Unspecified)
board.cache_hierarchy.ruby_system.RequestType.IFETCH.miss_latency_hist_seqr::gmean    34.578111                       (Unspecified)
board.cache_hierarchy.ruby_system.RequestType.IFETCH.miss_latency_hist_seqr::stdev   113.255017                       (Unspecified)
board.cache_hierarchy.ruby_system.RequestType.IFETCH.miss_latency_hist_seqr |         638     63.80%     63.80% |         324     32.40%     96.20% |          12      1.20%     97.40% |          19      1.90%     99.30% |           2      0.20%     99.50% |           1      0.10%     99.60% |           0      0.00%     99.60% |           4      0.40%    100.00% |           0      0.00%    100.00% |           0      0.00%    100.00% (Unspecified)
board.cache_hierarchy.ruby_system.RequestType.IFETCH.miss_latency_hist_seqr::total         1000                       (Unspecified)
board.cache_hierarchy.ruby_system.RequestType.Load_Linked.latency_hist_seqr::bucket_size           32                       (Unspecified)
board.cache_hierarchy.ruby_system.RequestType.Load_Linked.latency_hist_seqr::max_bucket          319                       (Unspecified)
board.cache_hierarchy.ruby_system.RequestType.Load_Linked.latency_hist_seqr::samples           33                       (Unspecified)
board.cache_hierarchy.ruby_system.RequestType.Load_Linked.latency_hist_seqr::mean    12.515152                       (Unspecified)
board.cache_hierarchy.ruby_system.RequestType.Load_Linked.latency_hist_seqr::gmean     1.372852                       (Unspecified)
board.cache_hierarchy.ruby_system.RequestType.Load_Linked.latency_hist_seqr::stdev    47.165348                       (Unspecified)
board.cache_hierarchy.ruby_system.RequestType.Load_Linked.latency_hist_seqr |          31     93.94%     93.94% |           0      0.00%     93.94% |           0      0.00%     93.94% |           0      0.00%     93.94% |           1      3.03%     96.97% |           0      0.00%     96.97% |           0      0.00%     96.97% |           1      3.03%    100.00% |           0      0.00%    100.00% |           0      0.00%    100.00% (Unspecified)
board.cache_hierarchy.ruby_system.RequestType.Load_Linked.latency_hist_seqr::total           33                       (Unspecified)
board.cache_hierarchy.ruby_system.RequestType.Load_Linked.hit_latency_hist_seqr::bucket_size            1                       (Unspecified)
board.cache_hierarchy.ruby_system.RequestType.Load_Linked.hit_latency_hist_seqr::max_bucket            9                       (Unspecified)
board.cache_hierarchy.ruby_system.RequestType.Load_Linked.hit_latency_hist_seqr::samples           31                       (Unspecified)
board.cache_hierarchy.ruby_system.RequestType.Load_Linked.hit_latency_hist_seqr::mean            1                       (Unspecified)
board.cache_hierarchy.ruby_system.RequestType.Load_Linked.hit_latency_hist_seqr::gmean            1                       (Unspecified)
board.cache_hierarchy.ruby_system.RequestType.Load_Linked.hit_latency_hist_seqr |           0      0.00%      0.00% |          31    100.00%    100.00% |           0      0.00%    100.00% |           0      0.00%    100.00% |           0      0.00%    100.00% |           0      0.00%    100.00% |           0      0.00%    100.00% |           0      0.00%    100.00% |           0      0.00%    100.00% |           0      0.00%    100.00% (Unspecified)
board.cache_hierarchy.ruby_system.RequestType.Load_Linked.hit_latency_hist_seqr::total           31                       (Unspecified)
board.cache_hierarchy.ruby_system.RequestType.Load_Linked.miss_latency_hist_seqr::bucket_size           32                       (Unspecified)
board.cache_hierarchy.ruby_system.RequestType.Load_Linked.miss_latency_hist_seqr::max_bucket          319                       (Unspecified)
board.cache_hierarchy.ruby_system.RequestType.Load_Linked.miss_latency_hist_seqr::samples            2                       (Unspecified)
board.cache_hierarchy.ruby_system.RequestType.Load_Linked.miss_latency_hist_seqr::mean          191                       (Unspecified)
board.cache_hierarchy.ruby_system.RequestType.Load_Linked.miss_latency_hist_seqr::gmean   186.547581                       (Unspecified)
board.cache_hierarchy.ruby_system.RequestType.Load_Linked.miss_latency_hist_seqr::stdev    57.982756                       (Unspecified)
board.cache_hierarchy.ruby_system.RequestType.Load_Linked.miss_latency_hist_seqr |           0      0.00%      0.00% |           0      0.00%      0.00% |           0      0.00%      0.00% |           0      0.00%      0.00% |           1     50.00%     50.00% |           0      0.00%     50.00% |           0      0.00%     50.00% |           1     50.00%    100.00% |           0      0.00%    100.00% |           0      0.00%    100.00% (Unspecified)
board.cache_hierarchy.ruby_system.RequestType.Load_Linked.miss_latency_hist_seqr::total            2                       (Unspecified)
board.cache_hierarchy.ruby_system.RequestType.Store_Conditional.latency_hist_seqr::bucket_size            1                       (Unspecified)
board.cache_hierarchy.ruby_system.RequestType.Store_Conditional.latency_hist_seqr::max_bucket            9                       (Unspecified)
board.cache_hierarchy.ruby_system.RequestType.Store_Conditional.latency_hist_seqr::samples           33                       (Unspecified)
board.cache_hierarchy.ruby_system.RequestType.Store_Conditional.latency_hist_seqr::mean            1                       (Unspecified)
board.cache_hierarchy.ruby_system.RequestType.Store_Conditional.latency_hist_seqr::gmean            1                       (Unspecified)
board.cache_hierarchy.ruby_system.RequestType.Store_Conditional.latency_hist_seqr |           0      0.00%      0.00% |          33    100.00%    100.00% |           0      0.00%    100.00% |           0      0.00%    100.00% |           0      0.00%    100.00% |           0      0.00%    100.00% |           0      0.00%    100.00% |           0      0.00%    100.00% |           0      0.00%    100.00% |           0      0.00%    100.00% (Unspecified)
board.cache_hierarchy.ruby_system.RequestType.Store_Conditional.latency_hist_seqr::total           33                       (Unspecified)
board.cache_hierarchy.ruby_system.RequestType.Store_Conditional.hit_latency_hist_seqr::bucket_size            1                       (Unspecified)
board.cache_hierarchy.ruby_system.RequestType.Store_Conditional.hit_latency_hist_seqr::max_bucket            9                       (Unspecified)
board.cache_hierarchy.ruby_system.RequestType.Store_Conditional.hit_latency_hist_seqr::samples           33                       (Unspecified)
board.cache_hierarchy.ruby_system.RequestType.Store_Conditional.hit_latency_hist_seqr::mean            1                       (Unspecified)
board.cache_hierarchy.ruby_system.RequestType.Store_Conditional.hit_latency_hist_seqr::gmean            1                       (Unspecified)
board.cache_hierarchy.ruby_system.RequestType.Store_Conditional.hit_latency_hist_seqr |           0      0.00%      0.00% |          33    100.00%    100.00% |           0      0.00%    100.00% |           0      0.00%    100.00% |           0      0.00%    100.00% |           0      0.00%    100.00% |           0      0.00%    100.00% |           0      0.00%    100.00% |           0      0.00%    100.00% |           0      0.00%    100.00% (Unspecified)
board.cache_hierarchy.ruby_system.RequestType.Store_Conditional.hit_latency_hist_seqr::total           33                       (Unspecified)
board.cache_hierarchy.ruby_system.directory_controllers.power_state.pwrStateResidencyTicks::UNDEFINED   1825612227                       # Cumulative time (in ticks) in various power states (Tick)
board.cache_hierarchy.ruby_system.directory_controllers.requestToDir.m_msg_count         2101                       # Number of messages passed the buffer (Count)
board.cache_hierarchy.ruby_system.directory_controllers.requestToDir.m_buf_msgs     0.002333                       # Average number of messages in buffer ((Count/Tick))
board.cache_hierarchy.ruby_system.directory_controllers.requestToMemory.m_msg_count         3303                       # Number of messages passed the buffer (Count)
board.cache_hierarchy.ruby_system.directory_controllers.requestToMemory.m_buf_msgs     0.003686                       # Average number of messages in buffer ((Count/Tick))
board.cache_hierarchy.ruby_system.directory_controllers.requestToMemory.m_stall_time         5661                       # Total number of ticks messages were stalled in this buffer (Tick)
board.cache_hierarchy.ruby_system.directory_controllers.requestToMemory.m_avg_stall_time     1.713896                       # Average stall ticks per message ((Tick/Count))
board.cache_hierarchy.ruby_system.directory_controllers.responseFromDir.m_msg_count         4202                       # Number of messages passed the buffer (Count)
board.cache_hierarchy.ruby_system.directory_controllers.responseFromDir.m_buf_msgs     0.004665                       # Average number of messages in buffer ((Count/Tick))
board.cache_hierarchy.ruby_system.directory_controllers.responseFromMemory.m_msg_count         3303                       # Number of messages passed the buffer (Count)
board.cache_hierarchy.ruby_system.directory_controllers.responseFromMemory.m_buf_msgs     0.006252                       # Average number of messages in buffer ((Count/Tick))
board.cache_hierarchy.ruby_system.directory_controllers.responseToDir.m_msg_count         2101                       # Number of messages passed the buffer (Count)
board.cache_hierarchy.ruby_system.directory_controllers.responseToDir.m_buf_msgs     0.002333                       # Average number of messages in buffer ((Count/Tick))
board.cache_hierarchy.ruby_system.l1_controllers0.delayHistogram::samples         2293                       # delay_histogram (Unspecified)
board.cache_hierarchy.ruby_system.l1_controllers0.delayHistogram::mean     0.007850                       # delay_histogram (Unspecified)
board.cache_hierarchy.ruby_system.l1_controllers0.delayHistogram::stdev     0.181926                       # delay_histogram (Unspecified)
board.cache_hierarchy.ruby_system.l1_controllers0.delayHistogram::0         2288     99.78%     99.78% # delay_histogram (Unspecified)
board.cache_hierarchy.ruby_system.l1_controllers0.delayHistogram::2            2      0.09%     99.87% # delay_histogram (Unspecified)
board.cache_hierarchy.ruby_system.l1_controllers0.delayHistogram::4            2      0.09%     99.96% # delay_histogram (Unspecified)
board.cache_hierarchy.ruby_system.l1_controllers0.delayHistogram::6            1      0.04%    100.00% # delay_histogram (Unspecified)
board.cache_hierarchy.ruby_system.l1_controllers0.delayHistogram::total         2293                       # delay_histogram (Unspecified)
board.cache_hierarchy.ruby_system.l1_controllers0.L1Dcache.m_demand_hits       112351                       # Number of cache demand hits (Unspecified)
board.cache_hierarchy.ruby_system.l1_controllers0.L1Dcache.m_demand_misses          766                       # Number of cache demand misses (Unspecified)
board.cache_hierarchy.ruby_system.l1_controllers0.L1Dcache.m_demand_accesses       113117                       # Number of cache demand accesses (Unspecified)
board.cache_hierarchy.ruby_system.l1_controllers0.L1Icache.m_demand_hits       255927                       # Number of cache demand hits (Unspecified)
board.cache_hierarchy.ruby_system.l1_controllers0.L1Icache.m_demand_misses          242                       # Number of cache demand misses (Unspecified)
board.cache_hierarchy.ruby_system.l1_controllers0.L1Icache.m_demand_accesses       256169                       # Number of cache demand accesses (Unspecified)
board.cache_hierarchy.ruby_system.l1_controllers0.mandatoryQueue.m_msg_count       369286                       # Number of messages passed the buffer (Count)
board.cache_hierarchy.ruby_system.l1_controllers0.mandatoryQueue.m_buf_msgs     0.410009                       # Average number of messages in buffer ((Count/Tick))
board.cache_hierarchy.ruby_system.l1_controllers0.power_state.pwrStateResidencyTicks::UNDEFINED   1825612227                       # Cumulative time (in ticks) in various power states (Tick)
board.cache_hierarchy.ruby_system.l1_controllers0.prefetcher.RubyPrefetcher.numMissObserved            0                       # Number of misses observed (Unspecified)
board.cache_hierarchy.ruby_system.l1_controllers0.prefetcher.RubyPrefetcher.numAllocatedStreams            0                       # Number of streams allocated for prefetching (Unspecified)
board.cache_hierarchy.ruby_system.l1_controllers0.prefetcher.RubyPrefetcher.numPrefetchRequested            0                       # Number of prefetch requests made (Unspecified)
board.cache_hierarchy.ruby_system.l1_controllers0.prefetcher.RubyPrefetcher.numHits            0                       # Number of prefetched blocks accessed (for the first time) (Unspecified)
board.cache_hierarchy.ruby_system.l1_controllers0.prefetcher.RubyPrefetcher.numPartialHits            0                       # Number of misses observed for a block being prefetched (Unspecified)
board.cache_hierarchy.ruby_system.l1_controllers0.prefetcher.RubyPrefetcher.numPagesCrossed            0                       # Number of prefetches across pages (Unspecified)
board.cache_hierarchy.ruby_system.l1_controllers0.prefetcher.RubyPrefetcher.numMissedPrefetchedBlocks            0                       # Number of misses for blocks that were prefetched, yet missed (Unspecified)
board.cache_hierarchy.ruby_system.l1_controllers0.requestFromL1Cache.m_msg_count         1520                       # Number of messages passed the buffer (Count)
board.cache_hierarchy.ruby_system.l1_controllers0.requestFromL1Cache.m_buf_msgs     0.003375                       # Average number of messages in buffer ((Count/Tick))
board.cache_hierarchy.ruby_system.l1_controllers0.requestToL1Cache.m_msg_count          760                       # Number of messages passed the buffer (Count)
board.cache_hierarchy.ruby_system.l1_controllers0.requestToL1Cache.m_buf_msgs     0.000844                       # Average number of messages in buffer ((Count/Tick))
board.cache_hierarchy.ruby_system.l1_controllers0.responseFromL1Cache.m_msg_count          835                       # Number of messages passed the buffer (Count)
board.cache_hierarchy.ruby_system.l1_controllers0.responseFromL1Cache.m_buf_msgs     0.001854                       # Average number of messages in buffer ((Count/Tick))
board.cache_hierarchy.ruby_system.l1_controllers0.responseToL1Cache.m_msg_count         1533                       # Number of messages passed the buffer (Count)
board.cache_hierarchy.ruby_system.l1_controllers0.responseToL1Cache.m_buf_msgs     0.001702                       # Average number of messages in buffer ((Count/Tick))
board.cache_hierarchy.ruby_system.l1_controllers0.sequencer.power_state.pwrStateResidencyTicks::UNDEFINED   1825612227                       # Cumulative time (in ticks) in various power states (Tick)
board.cache_hierarchy.ruby_system.l1_controllers0.unblockFromL1Cache.m_msg_count          763                       # Number of messages passed the buffer (Count)
board.cache_hierarchy.ruby_system.l1_controllers0.unblockFromL1Cache.m_buf_msgs     0.000847                       # Average number of messages in buffer ((Count/Tick))
board.cache_hierarchy.ruby_system.l1_controllers1.delayHistogram::samples          883                       # delay_histogram (Unspecified)
board.cache_hierarchy.ruby_system.l1_controllers1.delayHistogram::0          883    100.00%    100.00% # delay_histogram (Unspecified)
board.cache_hierarchy.ruby_system.l1_controllers1.delayHistogram::total          883                       # delay_histogram (Unspecified)
board.cache_hierarchy.ruby_system.l1_controllers1.L1Dcache.m_demand_hits       114399                       # Number of cache demand hits (Unspecified)
board.cache_hierarchy.ruby_system.l1_controllers1.L1Dcache.m_demand_misses          593                       # Number of cache demand misses (Unspecified)
board.cache_hierarchy.ruby_system.l1_controllers1.L1Dcache.m_demand_accesses       114992                       # Number of cache demand accesses (Unspecified)
board.cache_hierarchy.ruby_system.l1_controllers1.L1Icache.m_demand_hits       261981                       # Number of cache demand hits (Unspecified)
board.cache_hierarchy.ruby_system.l1_controllers1.L1Icache.m_demand_misses          108                       # Number of cache demand misses (Unspecified)
board.cache_hierarchy.ruby_system.l1_controllers1.L1Icache.m_demand_accesses       262089                       # Number of cache demand accesses (Unspecified)
board.cache_hierarchy.ruby_system.l1_controllers1.mandatoryQueue.m_msg_count       377081                       # Number of messages passed the buffer (Count)
board.cache_hierarchy.ruby_system.l1_controllers1.mandatoryQueue.m_buf_msgs     0.418664                       # Average number of messages in buffer ((Count/Tick))
board.cache_hierarchy.ruby_system.l1_controllers1.power_state.pwrStateResidencyTicks::UNDEFINED   1825612227                       # Cumulative time (in ticks) in various power states (Tick)
board.cache_hierarchy.ruby_system.l1_controllers1.prefetcher.RubyPrefetcher.numMissObserved            0                       # Number of misses observed (Unspecified)
board.cache_hierarchy.ruby_system.l1_controllers1.prefetcher.RubyPrefetcher.numAllocatedStreams            0                       # Number of streams allocated for prefetching (Unspecified)
board.cache_hierarchy.ruby_system.l1_controllers1.prefetcher.RubyPrefetcher.numPrefetchRequested            0                       # Number of prefetch requests made (Unspecified)
board.cache_hierarchy.ruby_system.l1_controllers1.prefetcher.RubyPrefetcher.numHits            0                       # Number of prefetched blocks accessed (for the first time) (Unspecified)
board.cache_hierarchy.ruby_system.l1_controllers1.prefetcher.RubyPrefetcher.numPartialHits            0                       # Number of misses observed for a block being prefetched (Unspecified)
board.cache_hierarchy.ruby_system.l1_controllers1.prefetcher.RubyPrefetcher.numPagesCrossed            0                       # Number of prefetches across pages (Unspecified)
board.cache_hierarchy.ruby_system.l1_controllers1.prefetcher.RubyPrefetcher.numMissedPrefetchedBlocks            0                       # Number of misses for blocks that were prefetched, yet missed (Unspecified)
board.cache_hierarchy.ruby_system.l1_controllers1.requestFromL1Cache.m_msg_count          730                       # Number of messages passed the buffer (Count)
board.cache_hierarchy.ruby_system.l1_controllers1.requestFromL1Cache.m_buf_msgs     0.001621                       # Average number of messages in buffer ((Count/Tick))
board.cache_hierarchy.ruby_system.l1_controllers1.requestToL1Cache.m_msg_count          151                       # Number of messages passed the buffer (Count)
board.cache_hierarchy.ruby_system.l1_controllers1.requestToL1Cache.m_buf_msgs     0.000168                       # Average number of messages in buffer ((Count/Tick))
board.cache_hierarchy.ruby_system.l1_controllers1.responseFromL1Cache.m_msg_count          160                       # Number of messages passed the buffer (Count)
board.cache_hierarchy.ruby_system.l1_controllers1.responseFromL1Cache.m_buf_msgs     0.000355                       # Average number of messages in buffer ((Count/Tick))
board.cache_hierarchy.ruby_system.l1_controllers1.responseToL1Cache.m_msg_count          732                       # Number of messages passed the buffer (Count)
board.cache_hierarchy.ruby_system.l1_controllers1.responseToL1Cache.m_buf_msgs     0.000813                       # Average number of messages in buffer ((Count/Tick))
board.cache_hierarchy.ruby_system.l1_controllers1.sequencer.power_state.pwrStateResidencyTicks::UNDEFINED   1825612227                       # Cumulative time (in ticks) in various power states (Tick)
board.cache_hierarchy.ruby_system.l1_controllers1.unblockFromL1Cache.m_msg_count          586                       # Number of messages passed the buffer (Count)
board.cache_hierarchy.ruby_system.l1_controllers1.unblockFromL1Cache.m_buf_msgs     0.000651                       # Average number of messages in buffer ((Count/Tick))
board.cache_hierarchy.ruby_system.l1_controllers2.delayHistogram::samples          878                       # delay_histogram (Unspecified)
board.cache_hierarchy.ruby_system.l1_controllers2.delayHistogram::0          878    100.00%    100.00% # delay_histogram (Unspecified)
board.cache_hierarchy.ruby_system.l1_controllers2.delayHistogram::total          878                       # delay_histogram (Unspecified)
board.cache_hierarchy.ruby_system.l1_controllers2.L1Dcache.m_demand_hits       116054                       # Number of cache demand hits (Unspecified)
board.cache_hierarchy.ruby_system.l1_controllers2.L1Dcache.m_demand_misses          594                       # Number of cache demand misses (Unspecified)
board.cache_hierarchy.ruby_system.l1_controllers2.L1Dcache.m_demand_accesses       116648                       # Number of cache demand accesses (Unspecified)
board.cache_hierarchy.ruby_system.l1_controllers2.L1Icache.m_demand_hits       266765                       # Number of cache demand hits (Unspecified)
board.cache_hierarchy.ruby_system.l1_controllers2.L1Icache.m_demand_misses          108                       # Number of cache demand misses (Unspecified)
board.cache_hierarchy.ruby_system.l1_controllers2.L1Icache.m_demand_accesses       266873                       # Number of cache demand accesses (Unspecified)
board.cache_hierarchy.ruby_system.l1_controllers2.mandatoryQueue.m_msg_count       383521                       # Number of messages passed the buffer (Count)
board.cache_hierarchy.ruby_system.l1_controllers2.mandatoryQueue.m_buf_msgs     0.425814                       # Average number of messages in buffer ((Count/Tick))
board.cache_hierarchy.ruby_system.l1_controllers2.power_state.pwrStateResidencyTicks::UNDEFINED   1825612227                       # Cumulative time (in ticks) in various power states (Tick)
board.cache_hierarchy.ruby_system.l1_controllers2.prefetcher.RubyPrefetcher.numMissObserved            0                       # Number of misses observed (Unspecified)
board.cache_hierarchy.ruby_system.l1_controllers2.prefetcher.RubyPrefetcher.numAllocatedStreams            0                       # Number of streams allocated for prefetching (Unspecified)
board.cache_hierarchy.ruby_system.l1_controllers2.prefetcher.RubyPrefetcher.numPrefetchRequested            0                       # Number of prefetch requests made (Unspecified)
board.cache_hierarchy.ruby_system.l1_controllers2.prefetcher.RubyPrefetcher.numHits            0                       # Number of prefetched blocks accessed (for the first time) (Unspecified)
[...]
board.processor.cores7.core.commitStats0.committedInstType::SimdMatMultAcc            0      0.00%     49.66% # Class of committed instruction. (Count)
board.processor.cores7.core.commitStats0.committedInstType::SimdShift            0      0.00%     49.66% # Class of committed instruction. (Count)
board.processor.cores7.core.commitStats0.committedInstType::SimdShiftAcc            0      0.00%     49.66% # Class of committed instruction. (Count)
board.processor.cores7.core.commitStats0.committedInstType::SimdDiv            0      0.00%     49.66% # Class of committed instruction. (Count)
board.processor.cores7.core.commitStats0.committedInstType::SimdSqrt            0      0.00%     49.66% # Class of committed instruction. (Count)
board.processor.cores7.core.commitStats0.committedInstType::SimdFloatAdd            0      0.00%     49.66% # Class of committed instruction. (Count)
board.processor.cores7.core.commitStats0.committedInstType::SimdFloatAlu            0      0.00%     49.66% # Class of committed instruction. (Count)
board.processor.cores7.core.commitStats0.committedInstType::SimdFloatCmp            0      0.00%     49.66% # Class of committed instruction. (Count)
board.processor.cores7.core.commitStats0.committedInstType::SimdFloatCvt            0      0.00%     49.66% # Class of committed instruction. (Count)
board.processor.cores7.core.commitStats0.committedInstType::SimdFloatDiv            0      0.00%     49.66% # Class of committed instruction. (Count)
board.processor.cores7.core.commitStats0.committedInstType::SimdFloatMisc            0      0.00%     49.66% # Class of committed instruction. (Count)
board.processor.cores7.core.commitStats0.committedInstType::SimdFloatMult            0      0.00%     49.66% # Class of committed instruction. (Count)
board.processor.cores7.core.commitStats0.committedInstType::SimdFloatMultAcc            0      0.00%     49.66% # Class of committed instruction. (Count)
board.processor.cores7.core.commitStats0.committedInstType::SimdFloatMatMultAcc            0      0.00%     49.66% # Class of committed instruction. (Count)
board.processor.cores7.core.commitStats0.committedInstType::SimdFloatSqrt            0      0.00%     49.66% # Class of committed instruction. (Count)
board.processor.cores7.core.commitStats0.committedInstType::SimdReduceAdd            0      0.00%     49.66% # Class of committed instruction. (Count)
board.processor.cores7.core.commitStats0.committedInstType::SimdReduceAlu            0      0.00%     49.66% # Class of committed instruction. (Count)
board.processor.cores7.core.commitStats0.committedInstType::SimdReduceCmp            0      0.00%     49.66% # Class of committed instruction. (Count)
board.processor.cores7.core.commitStats0.committedInstType::SimdFloatReduceAdd            0      0.00%     49.66% # Class of committed instruction. (Count)
board.processor.cores7.core.commitStats0.committedInstType::SimdFloatReduceCmp            0      0.00%     49.66% # Class of committed instruction. (Count)
board.processor.cores7.core.commitStats0.committedInstType::SimdAes            0      0.00%     49.66% # Class of committed instruction. (Count)
board.processor.cores7.core.commitStats0.committedInstType::SimdAesMix            0      0.00%     49.66% # Class of committed instruction. (Count)
board.processor.cores7.core.commitStats0.committedInstType::SimdSha1Hash            0      0.00%     49.66% # Class of committed instruction. (Count)
board.processor.cores7.core.commitStats0.committedInstType::SimdSha1Hash2            0      0.00%     49.66% # Class of committed instruction. (Count)
board.processor.cores7.core.commitStats0.committedInstType::SimdSha256Hash            0      0.00%     49.66% # Class of committed instruction. (Count)
board.processor.cores7.core.commitStats0.committedInstType::SimdSha256Hash2            0      0.00%     49.66% # Class of committed instruction. (Count)
board.processor.cores7.core.commitStats0.committedInstType::SimdShaSigma2            0      0.00%     49.66% # Class of committed instruction. (Count)
board.processor.cores7.core.commitStats0.committedInstType::SimdShaSigma3            0      0.00%     49.66% # Class of committed instruction. (Count)
board.processor.cores7.core.commitStats0.committedInstType::SimdSha3            0      0.00%     49.66% # Class of committed instruction. (Count)
board.processor.cores7.core.commitStats0.committedInstType::SimdSm4e            0      0.00%     49.66% # Class of committed instruction. (Count)
board.processor.cores7.core.commitStats0.committedInstType::SimdCrc            0      0.00%     49.66% # Class of committed instruction. (Count)
board.processor.cores7.core.commitStats0.committedInstType::SimdPredAlu            0      0.00%     49.66% # Class of committed instruction. (Count)
board.processor.cores7.core.commitStats0.committedInstType::SimdDotProd            0      0.00%     49.66% # Class of committed instruction. (Count)
board.processor.cores7.core.commitStats0.committedInstType::Matrix            0      0.00%     49.66% # Class of committed instruction. (Count)
board.processor.cores7.core.commitStats0.committedInstType::MatrixMov            0      0.00%     49.66% # Class of committed instruction. (Count)
board.processor.cores7.core.commitStats0.committedInstType::MatrixOP            0      0.00%     49.66% # Class of committed instruction. (Count)
board.processor.cores7.core.commitStats0.committedInstType::MemRead        97868     42.24%     91.89% # Class of committed instruction. (Count)
board.processor.cores7.core.commitStats0.committedInstType::MemWrite        18770      8.10%     99.99% # Class of committed instruction. (Count)
board.processor.cores7.core.commitStats0.committedInstType::FloatMemRead            0      0.00%     99.99% # Class of committed instruction. (Count)
board.processor.cores7.core.commitStats0.committedInstType::FloatMemWrite           12      0.01%    100.00% # Class of committed instruction. (Count)
board.processor.cores7.core.commitStats0.committedInstType::InstPrefetch            0      0.00%    100.00% # Class of committed instruction. (Count)
board.processor.cores7.core.commitStats0.committedInstType::SimdUnitStrideLoad            0      0.00%    100.00% # Class of committed instruction. (Count)
board.processor.cores7.core.commitStats0.committedInstType::SimdUnitStrideStore            0      0.00%    100.00% # Class of committed instruction. (Count)
board.processor.cores7.core.commitStats0.committedInstType::SimdUnitStrideMaskLoad            0      0.00%    100.00% # Class of committed instruction. (Count)
board.processor.cores7.core.commitStats0.committedInstType::SimdUnitStrideMaskStore            0      0.00%    100.00% # Class of committed instruction. (Count)
board.processor.cores7.core.commitStats0.committedInstType::SimdStridedLoad            0      0.00%    100.00% # Class of committed instruction. (Count)
board.processor.cores7.core.commitStats0.committedInstType::SimdStridedStore            0      0.00%    100.00% # Class of committed instruction. (Count)
board.processor.cores7.core.commitStats0.committedInstType::SimdIndexedLoad            0      0.00%    100.00% # Class of committed instruction. (Count)
board.processor.cores7.core.commitStats0.committedInstType::SimdIndexedStore            0      0.00%    100.00% # Class of committed instruction. (Count)
board.processor.cores7.core.commitStats0.committedInstType::SimdWholeRegisterLoad            0      0.00%    100.00% # Class of committed instruction. (Count)
board.processor.cores7.core.commitStats0.committedInstType::SimdWholeRegisterStore            0      0.00%    100.00% # Class of committed instruction. (Count)
board.processor.cores7.core.commitStats0.committedInstType::SimdUnitStrideFaultOnlyFirstLoad            0      0.00%    100.00% # Class of committed instruction. (Count)
board.processor.cores7.core.commitStats0.committedInstType::SimdUnitStrideSegmentedLoad            0      0.00%    100.00% # Class of committed instruction. (Count)
board.processor.cores7.core.commitStats0.committedInstType::SimdUnitStrideSegmentedStore            0      0.00%    100.00% # Class of committed instruction. (Count)
board.processor.cores7.core.commitStats0.committedInstType::SimdUnitStrideSegmentedFaultOnlyFirstLoad            0      0.00%    100.00% # Class of committed instruction. (Count)
board.processor.cores7.core.commitStats0.committedInstType::SimdStrideSegmentedLoad            0      0.00%    100.00% # Class of committed instruction. (Count)
board.processor.cores7.core.commitStats0.committedInstType::SimdStrideSegmentedStore            0      0.00%    100.00% # Class of committed instruction. (Count)
board.processor.cores7.core.commitStats0.committedInstType::SimdExt            0      0.00%    100.00% # Class of committed instruction. (Count)
board.processor.cores7.core.commitStats0.committedInstType::SimdFloatExt            0      0.00%    100.00% # Class of committed instruction. (Count)
board.processor.cores7.core.commitStats0.committedInstType::SimdConfig            0      0.00%    100.00% # Class of committed instruction. (Count)
board.processor.cores7.core.commitStats0.committedInstType::SimdBf16Add            0      0.00%    100.00% # Class of committed instruction. (Count)
board.processor.cores7.core.commitStats0.committedInstType::SimdBf16Cmp            0      0.00%    100.00% # Class of committed instruction. (Count)
board.processor.cores7.core.commitStats0.committedInstType::SimdBf16Cvt            0      0.00%    100.00% # Class of committed instruction. (Count)
board.processor.cores7.core.commitStats0.committedInstType::SimdBf16DotProd            0      0.00%    100.00% # Class of committed instruction. (Count)
board.processor.cores7.core.commitStats0.committedInstType::SimdBf16MatMultAcc            0      0.00%    100.00% # Class of committed instruction. (Count)
board.processor.cores7.core.commitStats0.committedInstType::SimdBf16Mult            0      0.00%    100.00% # Class of committed instruction. (Count)
board.processor.cores7.core.commitStats0.committedInstType::SimdBf16MultAcc            0      0.00%    100.00% # Class of committed instruction. (Count)
board.processor.cores7.core.commitStats0.committedInstType::Bf16Cvt            0      0.00%    100.00% # Class of committed instruction. (Count)
board.processor.cores7.core.commitStats0.committedInstType::System            0      0.00%    100.00% # Class of committed instruction. (Count)
board.processor.cores7.core.commitStats0.committedInstType::total       231705                       # Class of committed instruction. (Count)
board.processor.cores7.core.commitStats0.committedControl::IsControl        20825                       # Class of control type instructions committed (Count)
board.processor.cores7.core.commitStats0.committedControl::IsDirectControl        19728                       # Class of control type instructions committed (Count)
board.processor.cores7.core.commitStats0.committedControl::IsIndirectControl         1097                       # Class of control type instructions committed (Count)
board.processor.cores7.core.commitStats0.committedControl::IsCondControl        10423                       # Class of control type instructions committed (Count)
board.processor.cores7.core.commitStats0.committedControl::IsUncondControl        10402                       # Class of control type instructions committed (Count)
board.processor.cores7.core.commitStats0.committedControl::IsCall         1099                       # Class of control type instructions committed (Count)
board.processor.cores7.core.commitStats0.committedControl::IsReturn         1092                       # Class of control type instructions committed (Count)
board.processor.cores7.core.commitStats0.functionCalls         1099                       # Number of function calls committed (Count)
board.processor.cores7.core.commitStats0.numCallsReturns         2191                       # Number of function calls and returns committed (Count)
board.processor.cores7.core.exec_context.thread_0.numMatAluAccesses            0                       # Number of matrix alu accesses (Count)
board.processor.cores7.core.exec_context.thread_0.numMatInsts            0                       # Number of matrix instructions (Count)
board.processor.cores7.core.exec_context.thread_0.numIdleCycles 691056.437139                       # Number of idle cycles (Cycle)
board.processor.cores7.core.exec_context.thread_0.numBusyCycles 4791262.562861                       # Number of busy cycles (Cycle)
board.processor.cores7.core.exec_context.thread_0.notIdleFraction     0.873948                       # Percentage of non-idle cycles (Ratio)
board.processor.cores7.core.exec_context.thread_0.idleFraction     0.126052                       # Percentage of idle cycles (Ratio)
board.processor.cores7.core.executeStats0.numInsts       231698                       # Number of executed instructions (Count)
board.processor.cores7.core.executeStats0.numNop            0                       # Number of nop insts executed (Count)
board.processor.cores7.core.executeStats0.numBranches        20825                       # Number of branches executed (Count)
board.processor.cores7.core.executeStats0.numLoadInsts        97864                       # Number of load instructions executed (Count)
board.processor.cores7.core.executeStats0.numStoreInsts        18786                       # Number of stores executed (Count)
board.processor.cores7.core.executeStats0.instRate     0.042263                       # Inst execution rate ((Count/Cycle))
board.processor.cores7.core.executeStats0.numFpAluAccesses           12                       # Number of float alu accesses (Count)
board.processor.cores7.core.executeStats0.numFpRegReads           12                       # Number of times the floating registers were read (Count)
board.processor.cores7.core.executeStats0.numFpRegWrites            0                       # Number of times the floating registers were written (Count)
board.processor.cores7.core.executeStats0.numIntAluAccesses       223486                       # Number of integer alu accesses (Count)
board.processor.cores7.core.executeStats0.numIntRegReads       283205                       # Number of times the integer registers were read (Count)
board.processor.cores7.core.executeStats0.numIntRegWrites       192116                       # Number of times the integer registers were written (Count)
board.processor.cores7.core.executeStats0.numMemRefs       116650                       # Number of memory refs (Count)
board.processor.cores7.core.executeStats0.numMiscRegReads           30                       # Number of times the Misc registers were read (Count)
board.processor.cores7.core.executeStats0.numVecAluAccesses            0                       # Number of vector alu accesses (Count)
board.processor.cores7.core.executeStats0.numDiscardedOps            0                       # Number of ops (including micro ops) which were discarded before commit (Count)
board.processor.cores7.core.fetchStats0.numInsts       231702                       # Number of instructions fetched (thread level) (Count)
board.processor.cores7.core.fetchStats0.numOps       231709                       # Number of ops (including micro ops) fetched (thread level) (Count)
board.processor.cores7.core.fetchStats0.fetchRate     0.042264                       # Number of inst fetches per cycle ((Count/Cycle))
board.processor.cores7.core.fetchStats0.numBranches        20825                       # Number of branches fetched (Count)
board.processor.cores7.core.fetchStats0.branchRate     0.003799                       # Number of branch fetches per cycle (Ratio)
board.processor.cores7.core.fetchStats0.numFetchSuspends            0                       # Number of times Execute suspended instruction fetching (Count)
board.processor.cores7.core.mmu.dtb.readHits            0                       # read hits (Count)
board.processor.cores7.core.mmu.dtb.readMisses            0                       # read misses (Count)
board.processor.cores7.core.mmu.dtb.readAccesses            0                       # read accesses (Count)
board.processor.cores7.core.mmu.dtb.writeHits            0                       # write hits (Count)
board.processor.cores7.core.mmu.dtb.writeMisses            0                       # write misses (Count)
board.processor.cores7.core.mmu.dtb.writeAccesses            0                       # write accesses (Count)
board.processor.cores7.core.mmu.dtb.hits            0                       # Total TLB (read and write) hits (Count)
board.processor.cores7.core.mmu.dtb.misses            0                       # Total TLB (read and write) misses (Count)
board.processor.cores7.core.mmu.dtb.accesses            0                       # Total TLB (read and write) accesses (Count)
board.processor.cores7.core.mmu.dtb.walker.num_4kb_walks            0                       # Completed page walks with 4KB pages (Count)
board.processor.cores7.core.mmu.dtb.walker.num_64kb_walks            0                       # Completed page walks with 64KB pages (Count)
board.processor.cores7.core.mmu.dtb.walker.num_2mb_walks            0                       # Completed page walks with 2MB pages (Count)
board.processor.cores7.core.mmu.dtb.walker.power_state.pwrStateResidencyTicks::UNDEFINED   1825612227                       # Cumulative time (in ticks) in various power states (Tick)
board.processor.cores7.core.mmu.itb.readHits            0                       # read hits (Count)
board.processor.cores7.core.mmu.itb.readMisses            0                       # read misses (Count)
board.processor.cores7.core.mmu.itb.readAccesses            0                       # read accesses (Count)
board.processor.cores7.core.mmu.itb.writeHits            0                       # write hits (Count)
board.processor.cores7.core.mmu.itb.writeMisses            0                       # write misses (Count)
board.processor.cores7.core.mmu.itb.writeAccesses            0                       # write accesses (Count)
board.processor.cores7.core.mmu.itb.hits            0                       # Total TLB (read and write) hits (Count)
board.processor.cores7.core.mmu.itb.misses            0                       # Total TLB (read and write) misses (Count)
board.processor.cores7.core.mmu.itb.accesses            0                       # Total TLB (read and write) accesses (Count)
board.processor.cores7.core.mmu.itb.walker.num_4kb_walks            0                       # Completed page walks with 4KB pages (Count)
board.processor.cores7.core.mmu.itb.walker.num_64kb_walks            0                       # Completed page walks with 64KB pages (Count)
board.processor.cores7.core.mmu.itb.walker.num_2mb_walks            0                       # Completed page walks with 2MB pages (Count)
board.processor.cores7.core.mmu.itb.walker.power_state.pwrStateResidencyTicks::UNDEFINED   1825612227                       # Cumulative time (in ticks) in various power states (Tick)
board.processor.cores7.core.power_state.pwrStateResidencyTicks::ON   1825612227                       # Cumulative time (in ticks) in various power states (Tick)
board.processor.cores7.core.thread_0.numInsts       231698                       # Number of Instructions committed (Count)
board.processor.cores7.core.thread_0.numOps       231705                       # Number of Ops committed (Count)
board.processor.cores7.core.thread_0.numMemRefs       116650                       # Number of Memory References (Count)
board.workload.inst.arm                             0                       # number of arm instructions executed (Count)
board.workload.inst.quiesce                         0                       # number of quiesce instructions executed (Count)

---------- End Simulation Statistics   ----------
