
---------- Begin Simulation Statistics ----------
simSeconds                                   0.044811                       # Number of seconds simulated (Second)
simTicks                                  44811180963                       # Number of ticks simulated (Tick)
finalTick                                 44811180963                       # Number of ticks from beginning of simulation (restored from checkpoints and never reset) (Tick)
simFreq                                  1000000000000                       # The number of ticks per simulated second ((Tick/Second))
hostSeconds                                    355.53                       # Real time elapsed on the host (Second)
hostTickRate                                126040127                       # The number of ticks simulated per host second (ticks/s) ((Tick/Second))
hostMemory                                    2646572                       # Number of bytes of host memory used (Byte)
simInsts                                     60379755                       # Number of instructions simulated (Count)
simOps                                       60379993                       # Number of ops (including micro ops) simulated (Count)
hostInstRate                                   169830                       # Simulator instruction rate (inst/s) ((Count/Second))
hostOpRate                                     169830                       # Simulator op (including micro ops) rate (op/s) ((Count/Second))
board.cache_hierarchy.ruby_system.delayHistogram::bucket_size          256                       # delay histogram for all message (Unspecified)
board.cache_hierarchy.ruby_system.delayHistogram::max_bucket         2559                       # delay histogram for all message (Unspecified)
board.cache_hierarchy.ruby_system.delayHistogram::samples      5295437                       # delay histogram for all message (Unspecified)
board.cache_hierarchy.ruby_system.delayHistogram::mean     1.092778                       # delay histogram for all message (Unspecified)
board.cache_hierarchy.ruby_system.delayHistogram::stdev     3.169713                       # delay histogram for all message (Unspecified)
board.cache_hierarchy.ruby_system.delayHistogram |     5295432    100.00%    100.00% |           1      0.00%    100.00% |           1      0.00%    100.00% |           0      0.00%    100.00% |           1      0.00%    100.00% |           1      0.00%    100.00% |           0      0.00%    100.00% |           1      0.00%    100.00% |           0      0.00%    100.00% |           0      0.00%    100.00% # delay histogram for all message (Unspecified)
board.cache_hierarchy.ruby_system.delayHistogram::total      5295437                       # delay histogram for all message (Unspecified)
board.cache_hierarchy.ruby_system.m_outstandReqHistSeqr::bucket_size            1                       (Unspecified)
board.cache_hierarchy.ruby_system.m_outstandReqHistSeqr::max_bucket            9                       (Unspecified)
board.cache_hierarchy.ruby_system.m_outstandReqHistSeqr::samples     48112358                       (Unspecified)
board.cache_hierarchy.ruby_system.m_outstandReqHistSeqr::mean     1.381957                       (Unspecified)
board.cache_hierarchy.ruby_system.m_outstandReqHistSeqr::gmean     1.289261                       (Unspecified)
board.cache_hierarchy.ruby_system.m_outstandReqHistSeqr::stdev     0.557082                       (Unspecified)
board.cache_hierarchy.ruby_system.m_outstandReqHistSeqr |           0      0.00%      0.00% |    31522250     65.52%     65.52% |    14803354     30.77%     96.29% |     1786754      3.71%    100.00% |           0      0.00%    100.00% |           0      0.00%    100.00% |           0      0.00%    100.00% |           0      0.00%    100.00% |           0      0.00%    100.00% |           0      0.00%    100.00% (Unspecified)
board.cache_hierarchy.ruby_system.m_outstandReqHistSeqr::total     48112358                       (Unspecified)
board.cache_hierarchy.ruby_system.m_latencyHistSeqr::bucket_size          256                       (Unspecified)
board.cache_hierarchy.ruby_system.m_latencyHistSeqr::max_bucket         2559                       (Unspecified)
board.cache_hierarchy.ruby_system.m_latencyHistSeqr::samples     48487366                       (Unspecified)
board.cache_hierarchy.ruby_system.m_latencyHistSeqr::mean     5.033570                       (Unspecified)
board.cache_hierarchy.ruby_system.m_latencyHistSeqr::gmean     1.095408                       (Unspecified)
board.cache_hierarchy.ruby_system.m_latencyHistSeqr::stdev    36.007244                       (Unspecified)
board.cache_hierarchy.ruby_system.m_latencyHistSeqr |    48122861     99.25%     99.25% |      318877      0.66%     99.91% |       34754      0.07%     99.98% |        8005      0.02%     99.99% |        2220      0.00%    100.00% |         598      0.00%    100.00% |          51      0.00%    100.00% |           0      0.00%    100.00% |           0      0.00%    100.00% |           0      0.00%    100.00% (Unspecified)
board.cache_hierarchy.ruby_system.m_latencyHistSeqr::total     48487366                       (Unspecified)
board.cache_hierarchy.ruby_system.m_hitLatencyHistSeqr::bucket_size           64                       (Unspecified)
board.cache_hierarchy.ruby_system.m_hitLatencyHistSeqr::max_bucket          639                       (Unspecified)
board.cache_hierarchy.ruby_system.m_hitLatencyHistSeqr::samples     47727143                       (Unspecified)
board.cache_hierarchy.ruby_system.m_hitLatencyHistSeqr::mean     1.008070                       (Unspecified)
board.cache_hierarchy.ruby_system.m_hitLatencyHistSeqr::gmean     1.005469                       (Unspecified)
board.cache_hierarchy.ruby_system.m_hitLatencyHistSeqr::stdev     0.209087                       (Unspecified)
board.cache_hierarchy.ruby_system.m_hitLatencyHistSeqr |    47727052    100.00%    100.00% |          85      0.00%    100.00% |           0      0.00%    100.00% |           0      0.00%    100.00% |           0      0.00%    100.00% |           3      0.00%    100.00% |           0      0.00%    100.00% |           3      0.00%    100.00% |           0      0.00%    100.00% |           0      0.00%    100.00% (Unspecified)
board.cache_hierarchy.ruby_system.m_hitLatencyHistSeqr::total     47727143                       (Unspecified)
board.cache_hierarchy.ruby_system.m_missLatencyHistSeqr::bucket_size          256                       (Unspecified)
board.cache_hierarchy.ruby_system.m_missLatencyHistSeqr::max_bucket         2559                       (Unspecified)
board.cache_hierarchy.ruby_system.m_missLatencyHistSeqr::samples       760223                       (Unspecified)
board.cache_hierarchy.ruby_system.m_missLatencyHistSeqr::mean   257.756237                       (Unspecified)
board.cache_hierarchy.ruby_system.m_missLatencyHistSeqr::gmean   237.387384                       (Unspecified)
board.cache_hierarchy.ruby_system.m_missLatencyHistSeqr::stdev   133.431360                       (Unspecified)
board.cache_hierarchy.ruby_system.m_missLatencyHistSeqr |      395724     52.05%     52.05% |      318871     41.94%     94.00% |       34754      4.57%     98.57% |        8005      1.05%     99.62% |        2220      0.29%     99.91% |         598      0.08%     99.99% |          51      0.01%    100.00% |           0      0.00%    100.00% |           0      0.00%    100.00% |           0      0.00%    100.00% (Unspecified)
board.cache_hierarchy.ruby_system.m_missLatencyHistSeqr::total       760223                       (Unspecified)
board.cache_hierarchy.ruby_system.delayVCHist.vnet_0::bucket_size          256                       # delay histogram for vnet_0 (Unspecified)
board.cache_hierarchy.ruby_system.delayVCHist.vnet_0::max_bucket         2559                       # delay histogram for vnet_0 (Unspecified)
board.cache_hierarchy.ruby_system.delayVCHist.vnet_0::samples      2067992                       # delay histogram for vnet_0 (Unspecified)
board.cache_hierarchy.ruby_system.delayVCHist.vnet_0::mean     2.155960                       # delay histogram for vnet_0 (Unspecified)
board.cache_hierarchy.ruby_system.delayVCHist.vnet_0::stdev     4.412587                       # delay histogram for vnet_0 (Unspecified)
board.cache_hierarchy.ruby_system.delayVCHist.vnet_0 |     2067987    100.00%    100.00% |           1      0.00%    100.00% |           1      0.00%    100.00% |           0      0.00%    100.00% |           1      0.00%    100.00% |           1      0.00%    100.00% |           0      0.00%    100.00% |           1      0.00%    100.00% |           0      0.00%    100.00% |           0      0.00%    100.00% # delay histogram for vnet_0 (Unspecified)
board.cache_hierarchy.ruby_system.delayVCHist.vnet_0::total      2067992                       # delay histogram for vnet_0 (Unspecified)
board.cache_hierarchy.ruby_system.delayVCHist.vnet_1::bucket_size            8                       # delay histogram for vnet_1 (Unspecified)
board.cache_hierarchy.ruby_system.delayVCHist.vnet_1::max_bucket           79                       # delay histogram for vnet_1 (Unspecified)
board.cache_hierarchy.ruby_system.delayVCHist.vnet_1::samples      3024746                       # delay histogram for vnet_1 (Unspecified)
board.cache_hierarchy.ruby_system.delayVCHist.vnet_1::mean     0.438622                       # delay histogram for vnet_1 (Unspecified)
board.cache_hierarchy.ruby_system.delayVCHist.vnet_1::stdev     1.731095                       # delay histogram for vnet_1 (Unspecified)
board.cache_hierarchy.ruby_system.delayVCHist.vnet_1 |     2939307     97.18%     97.18% |       83371      2.76%     99.93% |        2011      0.07%    100.00% |          34      0.00%    100.00% |          12      0.00%    100.00% |           9      0.00%    100.00% |           2      0.00%    100.00% |           0      0.00%    100.00% |           0      0.00%    100.00% |           0      0.00%    100.00% # delay histogram for vnet_1 (Unspecified)
board.cache_hierarchy.ruby_system.delayVCHist.vnet_1::total      3024746                       # delay histogram for vnet_1 (Unspecified)
board.cache_hierarchy.ruby_system.delayVCHist.vnet_2::bucket_size            1                       # delay histogram for vnet_2 (Unspecified)
board.cache_hierarchy.ruby_system.delayVCHist.vnet_2::max_bucket            9                       # delay histogram for vnet_2 (Unspecified)
board.cache_hierarchy.ruby_system.delayVCHist.vnet_2::samples       202699                       # delay histogram for vnet_2 (Unspecified)
board.cache_hierarchy.ruby_system.delayVCHist.vnet_2::mean     0.007459                       # delay histogram for vnet_2 (Unspecified)
board.cache_hierarchy.ruby_system.delayVCHist.vnet_2::stdev     0.122882                       # delay histogram for vnet_2 (Unspecified)
board.cache_hierarchy.ruby_system.delayVCHist.vnet_2 |      201949     99.63%     99.63% |           0      0.00%     99.63% |         744      0.37%    100.00% |           0      0.00%    100.00% |           6      0.00%    100.00% |           0      0.00%    100.00% |           0      0.00%    100.00% |           0      0.00%    100.00% |           0      0.00%    100.00% |           0      0.00%    100.00% # delay histogram for vnet_2 (Unspecified)
board.cache_hierarchy.ruby_system.delayVCHist.vnet_2::total       202699                       # delay histogram for vnet_2 (Unspecified)
board.cache_hierarchy.ruby_system.Directory_Controller.Fetch       756166      0.00%      0.00% (Unspecified)
board.cache_hierarchy.ruby_system.Directory_Controller.Data       500096      0.00%      0.00% (Unspecified)
board.cache_hierarchy.ruby_system.Directory_Controller.Memory_Data       756166      0.00%      0.00% (Unspecified)
board.cache_hierarchy.ruby_system.Directory_Controller.Memory_Ack       500096      0.00%      0.00% (Unspecified)
board.cache_hierarchy.ruby_system.Directory_Controller.CleanReplacement       251974      0.00%      0.00% (Unspecified)
board.cache_hierarchy.ruby_system.Directory_Controller.I.Fetch       756166      0.00%      0.00% (Unspecified)
board.cache_hierarchy.ruby_system.Directory_Controller.M.Data       500096      0.00%      0.00% (Unspecified)
board.cache_hierarchy.ruby_system.Directory_Controller.M.CleanReplacement       251974      0.00%      0.00% (Unspecified)
board.cache_hierarchy.ruby_system.Directory_Controller.IM.Memory_Data       756166      0.00%      0.00% (Unspecified)
board.cache_hierarchy.ruby_system.Directory_Controller.MI.Memory_Ack       500096      0.00%      0.00% (Unspecified)
board.cache_hierarchy.ruby_system.L1Cache_Controller.Load |    16174523     66.62%     66.62% |     1169732      4.82%     71.44% |     1148860      4.73%     76.17% |     1162285      4.79%     80.96% |     1147117      4.73%     85.69% |     1160350      4.78%     90.47% |     1157767      4.77%     95.23% |     1156961      4.77%    100.00% (Unspecified)
board.cache_hierarchy.ruby_system.L1Cache_Controller.Load::total     24277595                       (Unspecified)
board.cache_hierarchy.ruby_system.L1Cache_Controller.Ifetch |    12647739     76.19%     76.19% |      588902      3.55%     79.74% |      547212      3.30%     83.03% |      574037      3.46%     86.49% |      543671      3.28%     89.77% |      570160      3.43%     93.20% |      564975      3.40%     96.61% |      563369      3.39%    100.00% (Unspecified)
board.cache_hierarchy.ruby_system.L1Cache_Controller.Ifetch::total     16600065                       (Unspecified)
board.cache_hierarchy.ruby_system.L1Cache_Controller.Store |     5877376     77.24%     77.24% |      252328      3.32%     80.55% |      243982      3.21%     83.76% |      249346      3.28%     87.03% |      243281      3.20%     90.23% |      248573      3.27%     93.50% |      247532      3.25%     96.75% |      247202      3.25%    100.00% (Unspecified)
board.cache_hierarchy.ruby_system.L1Cache_Controller.Store::total      7609620                       (Unspecified)
board.cache_hierarchy.ruby_system.L1Cache_Controller.Inv |       39132     19.32%     19.32% |       16030      7.91%     27.23% |       31528     15.57%     42.80% |       15822      7.81%     50.61% |       36632     18.09%     68.70% |       15819      7.81%     76.51% |       31668     15.63%     92.14% |       15921      7.86%    100.00% (Unspecified)
board.cache_hierarchy.ruby_system.L1Cache_Controller.Inv::total       202552                       (Unspecified)
board.cache_hierarchy.ruby_system.L1Cache_Controller.L1_Replacement |      424150     56.61%     56.61% |       46440      6.20%     62.81% |       46440      6.20%     69.01% |       46440      6.20%     75.21% |       46442      6.20%     81.41% |       46440      6.20%     87.60% |       46440      6.20%     93.80% |       46438      6.20%    100.00% (Unspecified)
board.cache_hierarchy.ruby_system.L1Cache_Controller.L1_Replacement::total       749230                       (Unspecified)
board.cache_hierarchy.ruby_system.L1Cache_Controller.Fwd_GETX |          36     55.38%     55.38% |           3      4.62%     60.00% |           5      7.69%     67.69% |           5      7.69%     75.38% |           4      6.15%     81.54% |           5      7.69%     89.23% |           5      7.69%     96.92% |           2      3.08%    100.00% (Unspecified)
board.cache_hierarchy.ruby_system.L1Cache_Controller.Fwd_GETX::total           65                       (Unspecified)
board.cache_hierarchy.ruby_system.L1Cache_Controller.Fwd_GETS |          64     78.05%     78.05% |          13     15.85%     93.90% |           0      0.00%     93.90% |           1      1.22%     95.12% |           2      2.44%     97.56% |           0      0.00%     97.56% |           1      1.22%     98.78% |           1      1.22%    100.00% (Unspecified)
board.cache_hierarchy.ruby_system.L1Cache_Controller.Fwd_GETS::total           82                       (Unspecified)
board.cache_hierarchy.ruby_system.L1Cache_Controller.Data_Exclusive |       33155     13.09%     13.09% |       31473     12.42%     25.51% |       31461     12.42%     37.92% |       31462     12.42%     50.34% |       31438     12.41%     62.75% |       31459     12.42%     75.17% |       31460     12.42%     87.58% |       31462     12.42%    100.00% (Unspecified)
board.cache_hierarchy.ruby_system.L1Cache_Controller.Data_Exclusive::total       253370                       (Unspecified)
board.cache_hierarchy.ruby_system.L1Cache_Controller.DataS_fromL1 |           1      1.22%      1.22% |          15     18.29%     19.51% |          20     24.39%     43.90% |          16     19.51%     63.41% |           7      8.54%     71.95% |           8      9.76%     81.71% |           8      9.76%     91.46% |           7      8.54%    100.00% (Unspecified)
board.cache_hierarchy.ruby_system.L1Cache_Controller.DataS_fromL1::total           82                       (Unspecified)
board.cache_hierarchy.ruby_system.L1Cache_Controller.Data_all_Acks |      393206     77.60%     77.60% |       16202      3.20%     80.79% |       16212      3.20%     83.99% |       16213      3.20%     87.19% |       16231      3.20%     90.39% |       16225      3.20%     93.60% |       16226      3.20%     96.80% |       16226      3.20%    100.00% (Unspecified)
board.cache_hierarchy.ruby_system.L1Cache_Controller.Data_all_Acks::total       506741                       (Unspecified)
board.cache_hierarchy.ruby_system.L1Cache_Controller.Ack |           8     22.22%     22.22% |           2      5.56%     27.78% |           2      5.56%     33.33% |           2      5.56%     38.89% |           9     25.00%     63.89% |           2      5.56%     69.44% |           2      5.56%     75.00% |           9     25.00%    100.00% (Unspecified)
board.cache_hierarchy.ruby_system.L1Cache_Controller.Ack::total           36                       (Unspecified)
board.cache_hierarchy.ruby_system.L1Cache_Controller.Ack_all |           8     33.33%     33.33% |           2      8.33%     41.67% |           2      8.33%     50.00% |           2      8.33%     58.33% |           3     12.50%     70.83% |           2      8.33%     79.17% |           2      8.33%     87.50% |           3     12.50%    100.00% (Unspecified)
board.cache_hierarchy.ruby_system.L1Cache_Controller.Ack_all::total           24                       (Unspecified)
board.cache_hierarchy.ruby_system.L1Cache_Controller.WB_Ack |      386294     69.77%     69.77% |       31347      5.66%     75.43% |       15670      2.83%     78.26% |       31394      5.67%     83.93% |       10540      1.90%     85.84% |       31403      5.67%     91.51% |       15715      2.84%     94.35% |       31290      5.65%    100.00% (Unspecified)
board.cache_hierarchy.ruby_system.L1Cache_Controller.WB_Ack::total       553653                       (Unspecified)
board.cache_hierarchy.ruby_system.L1Cache_Controller.Load_Linked |          88    100.00%    100.00% |           0      0.00%    100.00% |           0      0.00%    100.00% |           0      0.00%    100.00% |           0      0.00%    100.00% |           0      0.00%    100.00% |           0      0.00%    100.00% |           0      0.00%    100.00% (Unspecified)
board.cache_hierarchy.ruby_system.L1Cache_Controller.Load_Linked::total           88                       (Unspecified)
board.cache_hierarchy.ruby_system.L1Cache_Controller.LLSC_Data_all_Acks |           6    100.00%    100.00% |           0      0.00%    100.00% |           0      0.00%    100.00% |           0      0.00%    100.00% |           0      0.00%    100.00% |           0      0.00%    100.00% |           0      0.00%    100.00% |           0      0.00%    100.00% (Unspecified)
board.cache_hierarchy.ruby_system.L1Cache_Controller.LLSC_Data_all_Acks::total            6                       (Unspecified)
board.cache_hierarchy.ruby_system.L1Cache_Controller.LLSC_Timeout |          88    100.00%    100.00% |           0      0.00%    100.00% |           0      0.00%    100.00% |           0      0.00%    100.00% |           0      0.00%    100.00% |           0      0.00%    100.00% |           0      0.00%    100.00% |           0      0.00%    100.00% (Unspecified)
board.cache_hierarchy.ruby_system.L1Cache_Controller.LLSC_Timeout::total           88                       (Unspecified)
board.cache_hierarchy.ruby_system.L1Cache_Controller.NP.Load |       32888     13.05%     13.05% |       31295     12.42%     25.47% |       31295     12.42%     37.90% |       31295     12.42%     50.32% |       31297     12.42%     62.74% |       31295     12.42%     75.16% |       31295     12.42%     87.58% |       31293     12.42%    100.00% (Unspecified)
board.cache_hierarchy.ruby_system.L1Cache_Controller.NP.Load::total       251953                       (Unspecified)
board.cache_hierarchy.ruby_system.L1Cache_Controller.NP.Ifetch |        1264     54.69%     54.69% |         148      6.40%     61.10% |         148      6.40%     67.50% |         148      6.40%     73.91% |         154      6.66%     80.57% |         148      6.40%     86.98% |         148      6.40%     93.38% |         153      6.62%    100.00% (Unspecified)
board.cache_hierarchy.ruby_system.L1Cache_Controller.NP.Ifetch::total         2311                       (Unspecified)
board.cache_hierarchy.ruby_system.L1Cache_Controller.NP.Store |      391015     78.11%     78.11% |       15657      3.13%     81.23% |       15657      3.13%     84.36% |       15657      3.13%     87.49% |       15657      3.13%     90.62% |       15657      3.13%     93.74% |       15657      3.13%     96.87% |       15657      3.13%    100.00% (Unspecified)
board.cache_hierarchy.ruby_system.L1Cache_Controller.NP.Store::total       500614                       (Unspecified)
board.cache_hierarchy.ruby_system.L1Cache_Controller.NP.Inv |         183     61.62%     61.62% |          15      5.05%     66.67% |          19      6.40%     73.06% |          16      5.39%     78.45% |          16      5.39%     83.84% |          18      6.06%     89.90% |          14      4.71%     94.61% |          16      5.39%    100.00% (Unspecified)
board.cache_hierarchy.ruby_system.L1Cache_Controller.NP.Inv::total          297                       (Unspecified)
board.cache_hierarchy.ruby_system.L1Cache_Controller.NP.Load_Linked |           6    100.00%    100.00% |           0      0.00%    100.00% |           0      0.00%    100.00% |           0      0.00%    100.00% |           0      0.00%    100.00% |           0      0.00%    100.00% |           0      0.00%    100.00% |           0      0.00%    100.00% (Unspecified)
board.cache_hierarchy.ruby_system.L1Cache_Controller.NP.Load_Linked::total            6                       (Unspecified)
board.cache_hierarchy.ruby_system.L1Cache_Controller.I.Load |         276     16.23%     16.23% |         208     12.23%     28.45% |         208     12.23%     40.68% |         208     12.23%     52.91% |         182     10.70%     63.61% |         206     12.11%     75.72% |         206     12.11%     87.83% |         207     12.17%    100.00% (Unspecified)
board.cache_hierarchy.ruby_system.L1Cache_Controller.I.Load::total         1701                       (Unspecified)
board.cache_hierarchy.ruby_system.L1Cache_Controller.I.Ifetch |         919     25.56%     25.56% |         379     10.54%     36.11% |         383     10.65%     46.76% |         380     10.57%     57.33% |         385     10.71%     68.04% |         382     10.63%     78.66% |         384     10.68%     89.35% |         383     10.65%    100.00% (Unspecified)
board.cache_hierarchy.ruby_system.L1Cache_Controller.I.Ifetch::total         3595                       (Unspecified)
board.cache_hierarchy.ruby_system.L1Cache_Controller.I.Store |           1      5.00%      5.00% |           3     15.00%     20.00% |           2     10.00%     30.00% |           3     15.00%     45.00% |           1      5.00%     50.00% |           4     20.00%     70.00% |           4     20.00%     90.00% |           2     10.00%    100.00% (Unspecified)
board.cache_hierarchy.ruby_system.L1Cache_Controller.I.Store::total           20                       (Unspecified)
board.cache_hierarchy.ruby_system.L1Cache_Controller.I.L1_Replacement |       37588     19.26%     19.26% |       15078      7.72%     26.98% |       30751     15.75%     42.74% |       15030      7.70%     50.44% |       35886     18.38%     68.82% |       15019      7.69%     76.51% |       30711     15.73%     92.25% |       15132      7.75%    100.00% (Unspecified)
board.cache_hierarchy.ruby_system.L1Cache_Controller.I.L1_Replacement::total       195195                       (Unspecified)
board.cache_hierarchy.ruby_system.L1Cache_Controller.S.Load |        1497      3.30%      3.30% |        7449     16.41%     19.71% |        4739     10.44%     30.15% |        7422     16.35%     46.50% |        4385      9.66%     56.16% |        7033     15.49%     71.65% |        6514     14.35%     86.00% |        6354     14.00%    100.00% (Unspecified)
board.cache_hierarchy.ruby_system.L1Cache_Controller.S.Load::total        45393                       (Unspecified)
board.cache_hierarchy.ruby_system.L1Cache_Controller.S.Ifetch |    12645555     76.20%     76.20% |      588375      3.55%     79.75% |      546681      3.29%     83.04% |      573509      3.46%     86.50% |      543132      3.27%     89.77% |      569630      3.43%     93.21% |      564443      3.40%     96.61% |      562833      3.39%    100.00% (Unspecified)
board.cache_hierarchy.ruby_system.L1Cache_Controller.S.Ifetch::total     16594158                       (Unspecified)
board.cache_hierarchy.ruby_system.L1Cache_Controller.S.Store |           8     33.33%     33.33% |           2      8.33%     41.67% |           2      8.33%     50.00% |           2      8.33%     58.33% |           3     12.50%     70.83% |           2      8.33%     79.17% |           2      8.33%     87.50% |           3     12.50%    100.00% (Unspecified)
board.cache_hierarchy.ruby_system.L1Cache_Controller.S.Store::total           24                       (Unspecified)
board.cache_hierarchy.ruby_system.L1Cache_Controller.S.Inv |        1600     30.79%     30.79% |         515      9.91%     40.70% |         510      9.82%     50.52% |         513      9.87%     60.39% |         514      9.89%     70.28% |         513      9.87%     80.16% |         517      9.95%     90.11% |         514      9.89%    100.00% (Unspecified)
board.cache_hierarchy.ruby_system.L1Cache_Controller.S.Inv::total         5196                       (Unspecified)
board.cache_hierarchy.ruby_system.L1Cache_Controller.S.L1_Replacement |         268     70.16%     70.16% |          15      3.93%     74.08% |          19      4.97%     79.06% |          16      4.19%     83.25% |          16      4.19%     87.43% |          18      4.71%     92.15% |          14      3.66%     95.81% |          16      4.19%    100.00% (Unspecified)
board.cache_hierarchy.ruby_system.L1Cache_Controller.S.L1_Replacement::total          382                       (Unspecified)
board.cache_hierarchy.ruby_system.L1Cache_Controller.E.Load |     3182636     43.48%     43.48% |      592907      8.10%     51.58% |      589975      8.06%     59.64% |      591713      8.08%     67.72% |      589460      8.05%     75.78% |      591438      8.08%     83.86% |      589934      8.06%     91.92% |      591663      8.08%    100.00% (Unspecified)
board.cache_hierarchy.ruby_system.L1Cache_Controller.E.Load::total      7319726                       (Unspecified)
board.cache_hierarchy.ruby_system.L1Cache_Controller.E.Store |         247     25.97%     25.97% |         102     10.73%     36.70% |         103     10.83%     47.53% |         103     10.83%     58.36% |          91      9.57%     67.93% |         101     10.62%     78.55% |         101     10.62%     89.17% |         103     10.83%    100.00% (Unspecified)
board.cache_hierarchy.ruby_system.L1Cache_Controller.E.Store::total          951                       (Unspecified)
board.cache_hierarchy.ruby_system.L1Cache_Controller.E.Inv |       21755     16.14%     16.14% |       15261     11.32%     27.46% |       15716     11.66%     39.12% |       15119     11.22%     50.33% |       20802     15.43%     65.77% |       15117     11.21%     76.98% |       15793     11.72%     88.70% |       15236     11.30%    100.00% (Unspecified)
board.cache_hierarchy.ruby_system.L1Cache_Controller.E.Inv::total       134799                       (Unspecified)
board.cache_hierarchy.ruby_system.L1Cache_Controller.E.L1_Replacement |       10879      9.40%      9.40% |       15955     13.78%     23.18% |       15376     13.28%     36.47% |       15996     13.82%     50.29% |       10272      8.87%     59.16% |       16003     13.83%     72.99% |       15392     13.30%     86.29% |       15873     13.71%    100.00% (Unspecified)
board.cache_hierarchy.ruby_system.L1Cache_Controller.E.L1_Replacement::total       115746                       (Unspecified)
board.cache_hierarchy.ruby_system.L1Cache_Controller.E.Fwd_GETS |           7     31.82%     31.82% |          13     59.09%     90.91% |           0      0.00%     90.91% |           1      4.55%     95.45% |           0      0.00%     95.45% |           0      0.00%     95.45% |           1      4.55%    100.00% |           0      0.00%    100.00% (Unspecified)
board.cache_hierarchy.ruby_system.L1Cache_Controller.E.Fwd_GETS::total           22                       (Unspecified)
board.cache_hierarchy.ruby_system.L1Cache_Controller.E.Load_Linked |           9    100.00%    100.00% |           0      0.00%    100.00% |           0      0.00%    100.00% |           0      0.00%    100.00% |           0      0.00%    100.00% |           0      0.00%    100.00% |           0      0.00%    100.00% |           0      0.00%    100.00% (Unspecified)
board.cache_hierarchy.ruby_system.L1Cache_Controller.E.Load_Linked::total            9                       (Unspecified)
board.cache_hierarchy.ruby_system.L1Cache_Controller.M.Load |    12957214     77.78%     77.78% |      537873      3.23%     81.01% |      522643      3.14%     84.15% |      531647      3.19%     87.34% |      521793      3.13%     90.47% |      530378      3.18%     93.65% |      529818      3.18%     96.83% |      527444      3.17%    100.00% (Unspecified)
board.cache_hierarchy.ruby_system.L1Cache_Controller.M.Load::total     16658810                       (Unspecified)
board.cache_hierarchy.ruby_system.L1Cache_Controller.M.Store |     5486009     77.18%     77.18% |      236564      3.33%     80.51% |      228218      3.21%     83.72% |      233581      3.29%     87.01% |      227529      3.20%     90.21% |      232809      3.28%     93.48% |      231768      3.26%     96.74% |      231437      3.26%    100.00% (Unspecified)
board.cache_hierarchy.ruby_system.L1Cache_Controller.M.Store::total      7107915                       (Unspecified)
board.cache_hierarchy.ruby_system.L1Cache_Controller.M.Inv |       15592     25.05%     25.05% |         239      0.38%     25.44% |       15274     24.54%     49.98% |         174      0.28%     50.26% |       15298     24.58%     74.84% |         171      0.27%     75.12% |       15330     24.63%     99.75% |         155      0.25%    100.00% (Unspecified)
board.cache_hierarchy.ruby_system.L1Cache_Controller.M.Inv::total        62233                       (Unspecified)
board.cache_hierarchy.ruby_system.L1Cache_Controller.M.L1_Replacement |      375415     85.73%     85.73% |       15392      3.51%     89.24% |         294      0.07%     89.31% |       15398      3.52%     92.83% |         268      0.06%     92.89% |       15400      3.52%     96.41% |         323      0.07%     96.48% |       15417      3.52%    100.00% (Unspecified)
board.cache_hierarchy.ruby_system.L1Cache_Controller.M.L1_Replacement::total       437907                       (Unspecified)
board.cache_hierarchy.ruby_system.L1Cache_Controller.M.Fwd_GETX |          36     55.38%     55.38% |           3      4.62%     60.00% |           5      7.69%     67.69% |           5      7.69%     75.38% |           4      6.15%     81.54% |           5      7.69%     89.23% |           5      7.69%     96.92% |           2      3.08%    100.00% (Unspecified)
board.cache_hierarchy.ruby_system.L1Cache_Controller.M.Fwd_GETX::total           65                       (Unspecified)
board.cache_hierarchy.ruby_system.L1Cache_Controller.M.Fwd_GETS |          57     95.00%     95.00% |           0      0.00%     95.00% |           0      0.00%     95.00% |           0      0.00%     95.00% |           2      3.33%     98.33% |           0      0.00%     98.33% |           0      0.00%     98.33% |           1      1.67%    100.00% (Unspecified)
board.cache_hierarchy.ruby_system.L1Cache_Controller.M.Fwd_GETS::total           60                       (Unspecified)
board.cache_hierarchy.ruby_system.L1Cache_Controller.M.Load_Linked |          73    100.00%    100.00% |           0      0.00%    100.00% |           0      0.00%    100.00% |           0      0.00%    100.00% |           0      0.00%    100.00% |           0      0.00%    100.00% |           0      0.00%    100.00% |           0      0.00%    100.00% (Unspecified)
board.cache_hierarchy.ruby_system.L1Cache_Controller.M.Load_Linked::total           73                       (Unspecified)
board.cache_hierarchy.ruby_system.L1Cache_Controller.IS.Data_Exclusive |       33155     13.09%     13.09% |       31473     12.42%     25.51% |       31461     12.42%     37.92% |       31462     12.42%     50.34% |       31438     12.41%     62.75% |       31459     12.42%     75.17% |       31460     12.42%     87.58% |       31462     12.42%    100.00% (Unspecified)
board.cache_hierarchy.ruby_system.L1Cache_Controller.IS.Data_Exclusive::total       253370                       (Unspecified)
board.cache_hierarchy.ruby_system.L1Cache_Controller.IS.DataS_fromL1 |           1      1.22%      1.22% |          15     18.29%     19.51% |          20     24.39%     43.90% |          16     19.51%     63.41% |           7      8.54%     71.95% |           8      9.76%     81.71% |           8      9.76%     91.46% |           7      8.54%    100.00% (Unspecified)
board.cache_hierarchy.ruby_system.L1Cache_Controller.IS.DataS_fromL1::total           82                       (Unspecified)
board.cache_hierarchy.ruby_system.L1Cache_Controller.IS.Data_all_Acks |        2190     35.86%     35.86% |         542      8.88%     44.74% |         553      9.06%     53.79% |         553      9.06%     62.85% |         573      9.38%     72.23% |         564      9.24%     81.46% |         565      9.25%     90.72% |         567      9.28%    100.00% (Unspecified)
board.cache_hierarchy.ruby_system.L1Cache_Controller.IS.Data_all_Acks::total         6107                       (Unspecified)
board.cache_hierarchy.ruby_system.L1Cache_Controller.IM.Data_all_Acks |      391016     78.10%     78.10% |       15660      3.13%     81.23% |       15659      3.13%     84.36% |       15660      3.13%     87.49% |       15658      3.13%     90.62% |       15661      3.13%     93.74% |       15661      3.13%     96.87% |       15659      3.13%    100.00% (Unspecified)
board.cache_hierarchy.ruby_system.L1Cache_Controller.IM.Data_all_Acks::total       500634                       (Unspecified)
board.cache_hierarchy.ruby_system.L1Cache_Controller.IM.LLSC_Data_all_Acks |           6    100.00%    100.00% |           0      0.00%    100.00% |           0      0.00%    100.00% |           0      0.00%    100.00% |           0      0.00%    100.00% |           0      0.00%    100.00% |           0      0.00%    100.00% |           0      0.00%    100.00% (Unspecified)
board.cache_hierarchy.ruby_system.L1Cache_Controller.IM.LLSC_Data_all_Acks::total            6                       (Unspecified)
board.cache_hierarchy.ruby_system.L1Cache_Controller.SM.Ack |           8     22.22%     22.22% |           2      5.56%     27.78% |           2      5.56%     33.33% |           2      5.56%     38.89% |           9     25.00%     63.89% |           2      5.56%     69.44% |           2      5.56%     75.00% |           9     25.00%    100.00% (Unspecified)
board.cache_hierarchy.ruby_system.L1Cache_Controller.SM.Ack::total           36                       (Unspecified)
board.cache_hierarchy.ruby_system.L1Cache_Controller.SM.Ack_all |           8     33.33%     33.33% |           2      8.33%     41.67% |           2      8.33%     50.00% |           2      8.33%     58.33% |           3     12.50%     70.83% |           2      8.33%     79.17% |           2      8.33%     87.50% |           3     12.50%    100.00% (Unspecified)
board.cache_hierarchy.ruby_system.L1Cache_Controller.SM.Ack_all::total           24                       (Unspecified)
board.cache_hierarchy.ruby_system.L1Cache_Controller.M_I.Ifetch |           1    100.00%    100.00% |           0      0.00%    100.00% |           0      0.00%    100.00% |           0      0.00%    100.00% |           0      0.00%    100.00% |           0      0.00%    100.00% |           0      0.00%    100.00% |           0      0.00%    100.00% (Unspecified)
board.cache_hierarchy.ruby_system.L1Cache_Controller.M_I.Ifetch::total            1                       (Unspecified)
board.cache_hierarchy.ruby_system.L1Cache_Controller.M_I.Inv |           2      7.41%      7.41% |           0      0.00%      7.41% |           9     33.33%     40.74% |           0      0.00%     40.74% |           2      7.41%     48.15% |           0      0.00%     48.15% |          14     51.85%    100.00% |           0      0.00%    100.00% (Unspecified)
board.cache_hierarchy.ruby_system.L1Cache_Controller.M_I.Inv::total           27                       (Unspecified)
board.cache_hierarchy.ruby_system.L1Cache_Controller.M_I.WB_Ack |      386292     69.77%     69.77% |       31347      5.66%     75.44% |       15661      2.83%     78.27% |       31394      5.67%     83.94% |       10538      1.90%     85.84% |       31403      5.67%     91.51% |       15701      2.84%     94.35% |       31290      5.65%    100.00% (Unspecified)
board.cache_hierarchy.ruby_system.L1Cache_Controller.M_I.WB_Ack::total       553626                       (Unspecified)
board.cache_hierarchy.ruby_system.L1Cache_Controller.SINK_WB_ACK.WB_Ack |           2      7.41%      7.41% |           0      0.00%      7.41% |           9     33.33%     40.74% |           0      0.00%     40.74% |           2      7.41%     48.15% |           0      0.00%     48.15% |          14     51.85%    100.00% |           0      0.00%    100.00% (Unspecified)
board.cache_hierarchy.ruby_system.L1Cache_Controller.SINK_WB_ACK.WB_Ack::total           27                       (Unspecified)
board.cache_hierarchy.ruby_system.L1Cache_Controller.LLSC_E.Store |          15    100.00%    100.00% |           0      0.00%    100.00% |           0      0.00%    100.00% |           0      0.00%    100.00% |           0      0.00%    100.00% |           0      0.00%    100.00% |           0      0.00%    100.00% |           0      0.00%    100.00% (Unspecified)
board.cache_hierarchy.ruby_system.L1Cache_Controller.LLSC_E.Store::total           15                       (Unspecified)
board.cache_hierarchy.ruby_system.L1Cache_Controller.LLSC_M.Load |          12    100.00%    100.00% |           0      0.00%    100.00% |           0      0.00%    100.00% |           0      0.00%    100.00% |           0      0.00%    100.00% |           0      0.00%    100.00% |           0      0.00%    100.00% |           0      0.00%    100.00% (Unspecified)
board.cache_hierarchy.ruby_system.L1Cache_Controller.LLSC_M.Load::total           12                       (Unspecified)
board.cache_hierarchy.ruby_system.L1Cache_Controller.LLSC_M.Store |          81    100.00%    100.00% |           0      0.00%    100.00% |           0      0.00%    100.00% |           0      0.00%    100.00% |           0      0.00%    100.00% |           0      0.00%    100.00% |           0      0.00%    100.00% |           0      0.00%    100.00% (Unspecified)
board.cache_hierarchy.ruby_system.L1Cache_Controller.LLSC_M.Store::total           81                       (Unspecified)
board.cache_hierarchy.ruby_system.L1Cache_Controller.LLSC_M.LLSC_Timeout |          88    100.00%    100.00% |           0      0.00%    100.00% |           0      0.00%    100.00% |           0      0.00%    100.00% |           0      0.00%    100.00% |           0      0.00%    100.00% |           0      0.00%    100.00% |           0      0.00%    100.00% (Unspecified)
board.cache_hierarchy.ruby_system.L1Cache_Controller.LLSC_M.LLSC_Timeout::total           88                       (Unspecified)
board.cache_hierarchy.ruby_system.L2Cache_Controller.L1_GET_INSTR         6304      0.00%      0.00% (Unspecified)
board.cache_hierarchy.ruby_system.L2Cache_Controller.L1_GETS       254113      0.00%      0.00% (Unspecified)
board.cache_hierarchy.ruby_system.L2Cache_Controller.L1_GETX       500686      0.00%      0.00% (Unspecified)
board.cache_hierarchy.ruby_system.L2Cache_Controller.L1_UPGRADE           24      0.00%      0.00% (Unspecified)
board.cache_hierarchy.ruby_system.L2Cache_Controller.L1_PUTX       553626      0.00%      0.00% (Unspecified)
board.cache_hierarchy.ruby_system.L2Cache_Controller.L1_PUTX_old           54      0.00%      0.00% (Unspecified)
board.cache_hierarchy.ruby_system.L2Cache_Controller.L2_Replacement       437879      0.00%      0.00% (Unspecified)
board.cache_hierarchy.ruby_system.L2Cache_Controller.L2_Replacement_clean       314191      0.00%      0.00% (Unspecified)
board.cache_hierarchy.ruby_system.L2Cache_Controller.Mem_Data       756166      0.00%      0.00% (Unspecified)
board.cache_hierarchy.ruby_system.L2Cache_Controller.Mem_Ack       752070      0.00%      0.00% (Unspecified)
board.cache_hierarchy.ruby_system.L2Cache_Controller.WB_Data        62294      0.00%      0.00% (Unspecified)
board.cache_hierarchy.ruby_system.L2Cache_Controller.WB_Data_clean           48      0.00%      0.00% (Unspecified)
board.cache_hierarchy.ruby_system.L2Cache_Controller.Ack         3586      0.00%      0.00% (Unspecified)
board.cache_hierarchy.ruby_system.L2Cache_Controller.Ack_all       136670      0.00%      0.00% (Unspecified)
board.cache_hierarchy.ruby_system.L2Cache_Controller.Unblock           82      0.00%      0.00% (Unspecified)
board.cache_hierarchy.ruby_system.L2Cache_Controller.Exclusive_Unblock       754034      0.00%      0.00% (Unspecified)
board.cache_hierarchy.ruby_system.L2Cache_Controller.NP.L1_GET_INSTR         2265      0.00%      0.00% (Unspecified)
board.cache_hierarchy.ruby_system.L2Cache_Controller.NP.L1_GETS       253336      0.00%      0.00% (Unspecified)
board.cache_hierarchy.ruby_system.L2Cache_Controller.NP.L1_GETX       500565      0.00%      0.00% (Unspecified)
board.cache_hierarchy.ruby_system.L2Cache_Controller.NP.L1_PUTX_old           27      0.00%      0.00% (Unspecified)
board.cache_hierarchy.ruby_system.L2Cache_Controller.SS.L1_GET_INSTR         1683      0.00%      0.00% (Unspecified)
board.cache_hierarchy.ruby_system.L2Cache_Controller.SS.L1_GETS          187      0.00%      0.00% (Unspecified)
board.cache_hierarchy.ruby_system.L2Cache_Controller.SS.L1_UPGRADE           24      0.00%      0.00% (Unspecified)
board.cache_hierarchy.ruby_system.L2Cache_Controller.SS.L2_Replacement           37      0.00%      0.00% (Unspecified)
board.cache_hierarchy.ruby_system.L2Cache_Controller.SS.L2_Replacement_clean         1834      0.00%      0.00% (Unspecified)
board.cache_hierarchy.ruby_system.L2Cache_Controller.M.L1_GET_INSTR            1      0.00%      0.00% (Unspecified)
board.cache_hierarchy.ruby_system.L2Cache_Controller.M.L1_GETS           38      0.00%      0.00% (Unspecified)
board.cache_hierarchy.ruby_system.L2Cache_Controller.M.L1_GETX           10      0.00%      0.00% (Unspecified)
board.cache_hierarchy.ruby_system.L2Cache_Controller.M.L2_Replacement       437824      0.00%      0.00% (Unspecified)
board.cache_hierarchy.ruby_system.L2Cache_Controller.M.L2_Replacement_clean       115316      0.00%      0.00% (Unspecified)
board.cache_hierarchy.ruby_system.L2Cache_Controller.MT.L1_GETS           82      0.00%      0.00% (Unspecified)
board.cache_hierarchy.ruby_system.L2Cache_Controller.MT.L1_GETX           65      0.00%      0.00% (Unspecified)
board.cache_hierarchy.ruby_system.L2Cache_Controller.MT.L1_PUTX       553626      0.00%      0.00% (Unspecified)
board.cache_hierarchy.ruby_system.L2Cache_Controller.MT.L2_Replacement           18      0.00%      0.00% (Unspecified)
board.cache_hierarchy.ruby_system.L2Cache_Controller.MT.L2_Replacement_clean       197041      0.00%      0.00% (Unspecified)
board.cache_hierarchy.ruby_system.L2Cache_Controller.M_I.L1_GET_INSTR          399      0.00%      0.00% (Unspecified)
board.cache_hierarchy.ruby_system.L2Cache_Controller.M_I.L1_GETS          409      0.00%      0.00% (Unspecified)
board.cache_hierarchy.ruby_system.L2Cache_Controller.M_I.L1_GETX           19      0.00%      0.00% (Unspecified)
board.cache_hierarchy.ruby_system.L2Cache_Controller.M_I.Mem_Ack       752070      0.00%      0.00% (Unspecified)
board.cache_hierarchy.ruby_system.L2Cache_Controller.MT_I.WB_Data           17      0.00%      0.00% (Unspecified)
board.cache_hierarchy.ruby_system.L2Cache_Controller.MT_I.Ack_all            1      0.00%      0.00% (Unspecified)
board.cache_hierarchy.ruby_system.L2Cache_Controller.MCT_I.L1_PUTX_old           27      0.00%      0.00% (Unspecified)
board.cache_hierarchy.ruby_system.L2Cache_Controller.MCT_I.WB_Data        62217      0.00%      0.00% (Unspecified)
board.cache_hierarchy.ruby_system.L2Cache_Controller.MCT_I.WB_Data_clean           26      0.00%      0.00% (Unspecified)
board.cache_hierarchy.ruby_system.L2Cache_Controller.MCT_I.Ack_all       134798      0.00%      0.00% (Unspecified)
board.cache_hierarchy.ruby_system.L2Cache_Controller.I_I.Ack         3497      0.00%      0.00% (Unspecified)
board.cache_hierarchy.ruby_system.L2Cache_Controller.I_I.Ack_all         1834      0.00%      0.00% (Unspecified)
board.cache_hierarchy.ruby_system.L2Cache_Controller.S_I.Ack           89      0.00%      0.00% (Unspecified)
board.cache_hierarchy.ruby_system.L2Cache_Controller.S_I.Ack_all           37      0.00%      0.00% (Unspecified)
board.cache_hierarchy.ruby_system.L2Cache_Controller.ISS.L1_GETS            4      0.00%      0.00% (Unspecified)
board.cache_hierarchy.ruby_system.L2Cache_Controller.ISS.Mem_Data       253332      0.00%      0.00% (Unspecified)
board.cache_hierarchy.ruby_system.L2Cache_Controller.IS.L1_GET_INSTR         1956      0.00%      0.00% (Unspecified)
board.cache_hierarchy.ruby_system.L2Cache_Controller.IS.L1_GETS            7      0.00%      0.00% (Unspecified)
board.cache_hierarchy.ruby_system.L2Cache_Controller.IS.Mem_Data         2269      0.00%      0.00% (Unspecified)
board.cache_hierarchy.ruby_system.L2Cache_Controller.IM.L1_GETX            6      0.00%      0.00% (Unspecified)
board.cache_hierarchy.ruby_system.L2Cache_Controller.IM.Mem_Data       500565      0.00%      0.00% (Unspecified)
board.cache_hierarchy.ruby_system.L2Cache_Controller.SS_MB.L1_GETS           11      0.00%      0.00% (Unspecified)
board.cache_hierarchy.ruby_system.L2Cache_Controller.SS_MB.Exclusive_Unblock           24      0.00%      0.00% (Unspecified)
board.cache_hierarchy.ruby_system.L2Cache_Controller.MT_MB.L1_GETS            7      0.00%      0.00% (Unspecified)
board.cache_hierarchy.ruby_system.L2Cache_Controller.MT_MB.L1_GETX           21      0.00%      0.00% (Unspecified)
board.cache_hierarchy.ruby_system.L2Cache_Controller.MT_MB.Exclusive_Unblock       754010      0.00%      0.00% (Unspecified)
board.cache_hierarchy.ruby_system.L2Cache_Controller.MT_IIB.L1_GETS           32      0.00%      0.00% (Unspecified)
board.cache_hierarchy.ruby_system.L2Cache_Controller.MT_IIB.WB_Data            3      0.00%      0.00% (Unspecified)
board.cache_hierarchy.ruby_system.L2Cache_Controller.MT_IIB.WB_Data_clean            2      0.00%      0.00% (Unspecified)
board.cache_hierarchy.ruby_system.L2Cache_Controller.MT_IIB.Unblock           77      0.00%      0.00% (Unspecified)
board.cache_hierarchy.ruby_system.L2Cache_Controller.MT_IB.WB_Data           57      0.00%      0.00% (Unspecified)
board.cache_hierarchy.ruby_system.L2Cache_Controller.MT_IB.WB_Data_clean           20      0.00%      0.00% (Unspecified)
board.cache_hierarchy.ruby_system.L2Cache_Controller.MT_SB.Unblock            5      0.00%      0.00% (Unspecified)
board.cache_hierarchy.ruby_system.RequestType.LD.latency_hist_seqr::bucket_size          256                       (Unspecified)
board.cache_hierarchy.ruby_system.RequestType.LD.latency_hist_seqr::max_bucket         2559                       (Unspecified)
board.cache_hierarchy.ruby_system.RequestType.LD.latency_hist_seqr::samples     24277595                       (Unspecified)
board.cache_hierarchy.ruby_system.RequestType.LD.latency_hist_seqr::mean     4.179220                       (Unspecified)
board.cache_hierarchy.ruby_system.RequestType.LD.latency_hist_seqr::gmean     1.061020                       (Unspecified)
board.cache_hierarchy.ruby_system.RequestType.LD.latency_hist_seqr::stdev    33.499882                       (Unspecified)
board.cache_hierarchy.ruby_system.RequestType.LD.latency_hist_seqr |    24045300     99.04%     99.04% |      217987      0.90%     99.94% |       10088      0.04%     99.98% |        2542      0.01%     99.99% |        1315      0.01%    100.00% |         360      0.00%    100.00% |           3      0.00%    100.00% |           0      0.00%    100.00% |           0      0.00%    100.00% |           0      0.00%    100.00% (Unspecified)
board.cache_hierarchy.ruby_system.RequestType.LD.latency_hist_seqr::total     24277595                       (Unspecified)
board.cache_hierarchy.ruby_system.RequestType.LD.hit_latency_hist_seqr::bucket_size            1                       (Unspecified)
board.cache_hierarchy.ruby_system.RequestType.LD.hit_latency_hist_seqr::max_bucket            9                       (Unspecified)
board.cache_hierarchy.ruby_system.RequestType.LD.hit_latency_hist_seqr::samples     24023941                       (Unspecified)
board.cache_hierarchy.ruby_system.RequestType.LD.hit_latency_hist_seqr::mean            1                       (Unspecified)
board.cache_hierarchy.ruby_system.RequestType.LD.hit_latency_hist_seqr::gmean            1                       (Unspecified)
board.cache_hierarchy.ruby_system.RequestType.LD.hit_latency_hist_seqr |           0      0.00%      0.00% |    24023941    100.00%    100.00% |           0      0.00%    100.00% |           0      0.00%    100.00% |           0      0.00%    100.00% |           0      0.00%    100.00% |           0      0.00%    100.00% |           0      0.00%    100.00% |           0      0.00%    100.00% |           0      0.00%    100.00% (Unspecified)
board.cache_hierarchy.ruby_system.RequestType.LD.hit_latency_hist_seqr::total     24023941                       (Unspecified)
board.cache_hierarchy.ruby_system.RequestType.LD.miss_latency_hist_seqr::bucket_size          256                       (Unspecified)
board.cache_hierarchy.ruby_system.RequestType.LD.miss_latency_hist_seqr::max_bucket         2559                       (Unspecified)
board.cache_hierarchy.ruby_system.RequestType.LD.miss_latency_hist_seqr::samples       253654                       (Unspecified)
board.cache_hierarchy.ruby_system.RequestType.LD.miss_latency_hist_seqr::mean   305.287754                       (Unspecified)
board.cache_hierarchy.ruby_system.RequestType.LD.miss_latency_hist_seqr::gmean   289.759415                       (Unspecified)
board.cache_hierarchy.ruby_system.RequestType.LD.miss_latency_hist_seqr::stdev   125.649711                       (Unspecified)
board.cache_hierarchy.ruby_system.RequestType.LD.miss_latency_hist_seqr |       21359      8.42%      8.42% |      217987     85.94%     94.36% |       10088      3.98%     98.34% |        2542      1.00%     99.34% |        1315      0.52%     99.86% |         360      0.14%    100.00% |           3      0.00%    100.00% |           0      0.00%    100.00% |           0      0.00%    100.00% |           0      0.00%    100.00% (Unspecified)
board.cache_hierarchy.ruby_system.RequestType.LD.miss_latency_hist_seqr::total       253654                       (Unspecified)
board.cache_hierarchy.ruby_system.RequestType.ST.latency_hist_seqr::bucket_size          256                       (Unspecified)
board.cache_hierarchy.ruby_system.RequestType.ST.latency_hist_seqr::max_bucket         2559                       (Unspecified)
board.cache_hierarchy.ruby_system.RequestType.ST.latency_hist_seqr::samples      7609532                       (Unspecified)
board.cache_hierarchy.ruby_system.RequestType.ST.latency_hist_seqr::mean    16.426430                       (Unspecified)
board.cache_hierarchy.ruby_system.RequestType.ST.latency_hist_seqr::gmean     1.474011                       (Unspecified)
board.cache_hierarchy.ruby_system.RequestType.ST.latency_hist_seqr::stdev    66.902205                       (Unspecified)
board.cache_hierarchy.ruby_system.RequestType.ST.latency_hist_seqr |     7478692     98.28%     98.28% |       99667      1.31%     99.59% |       24568      0.32%     99.91% |        5433      0.07%     99.98% |         888      0.01%    100.00% |         236      0.00%    100.00% |          48      0.00%    100.00% |           0      0.00%    100.00% |           0      0.00%    100.00% |           0      0.00%    100.00% (Unspecified)
board.cache_hierarchy.ruby_system.RequestType.ST.latency_hist_seqr::total      7609532                       (Unspecified)
board.cache_hierarchy.ruby_system.RequestType.ST.hit_latency_hist_seqr::bucket_size           64                       (Unspecified)
board.cache_hierarchy.ruby_system.RequestType.ST.hit_latency_hist_seqr::max_bucket          639                       (Unspecified)
board.cache_hierarchy.ruby_system.RequestType.ST.hit_latency_hist_seqr::samples      7108874                       (Unspecified)
board.cache_hierarchy.ruby_system.RequestType.ST.hit_latency_hist_seqr::mean     1.054182                       (Unspecified)
board.cache_hierarchy.ruby_system.RequestType.ST.hit_latency_hist_seqr::gmean     1.037295                       (Unspecified)
board.cache_hierarchy.ruby_system.RequestType.ST.hit_latency_hist_seqr::stdev     0.539451                       (Unspecified)
board.cache_hierarchy.ruby_system.RequestType.ST.hit_latency_hist_seqr |     7108783    100.00%    100.00% |          85      0.00%    100.00% |           0      0.00%    100.00% |           0      0.00%    100.00% |           0      0.00%    100.00% |           3      0.00%    100.00% |           0      0.00%    100.00% |           3      0.00%    100.00% |           0      0.00%    100.00% |           0      0.00%    100.00% (Unspecified)
board.cache_hierarchy.ruby_system.RequestType.ST.hit_latency_hist_seqr::total      7108874                       (Unspecified)
board.cache_hierarchy.ruby_system.RequestType.ST.miss_latency_hist_seqr::bucket_size          256                       (Unspecified)
board.cache_hierarchy.ruby_system.RequestType.ST.miss_latency_hist_seqr::max_bucket         2559                       (Unspecified)
board.cache_hierarchy.ruby_system.RequestType.ST.miss_latency_hist_seqr::samples       500658                       (Unspecified)
board.cache_hierarchy.ruby_system.RequestType.ST.miss_latency_hist_seqr::mean   234.697926                       (Unspecified)
board.cache_hierarchy.ruby_system.RequestType.ST.miss_latency_hist_seqr::gmean   216.400683                       (Unspecified)
board.cache_hierarchy.ruby_system.RequestType.ST.miss_latency_hist_seqr::stdev   130.490160                       (Unspecified)
board.cache_hierarchy.ruby_system.RequestType.ST.miss_latency_hist_seqr |      369824     73.87%     73.87% |       99661     19.91%     93.77% |       24568      4.91%     98.68% |        5433      1.09%     99.77% |         888      0.18%     99.94% |         236      0.05%     99.99% |          48      0.01%    100.00% |           0      0.00%    100.00% |           0      0.00%    100.00% |           0      0.00%    100.00% (Unspecified)
board.cache_hierarchy.ruby_system.RequestType.ST.miss_latency_hist_seqr::total       500658                       (Unspecified)
board.cache_hierarchy.ruby_system.RequestType.IFETCH.latency_hist_seqr::bucket_size          256                       (Unspecified)
board.cache_hierarchy.ruby_system.RequestType.IFETCH.latency_hist_seqr::max_bucket         2559                       (Unspecified)
board.cache_hierarchy.ruby_system.RequestType.IFETCH.latency_hist_seqr::samples     16600063                       (Unspecified)
board.cache_hierarchy.ruby_system.RequestType.IFETCH.latency_hist_seqr::mean     1.060496                       (Unspecified)
board.cache_hierarchy.ruby_system.RequestType.IFETCH.latency_hist_seqr::gmean     1.001693                       (Unspecified)
board.cache_hierarchy.ruby_system.RequestType.IFETCH.latency_hist_seqr::stdev     4.196495                       (Unspecified)
board.cache_hierarchy.ruby_system.RequestType.IFETCH.latency_hist_seqr |    16598694     99.99%     99.99% |        1222      0.01%    100.00% |          98      0.00%    100.00% |          30      0.00%    100.00% |          17      0.00%    100.00% |           2      0.00%    100.00% |           0      0.00%    100.00% |           0      0.00%    100.00% |           0      0.00%    100.00% |           0      0.00%    100.00% (Unspecified)
board.cache_hierarchy.ruby_system.RequestType.IFETCH.latency_hist_seqr::total     16600063                       (Unspecified)
board.cache_hierarchy.ruby_system.RequestType.IFETCH.hit_latency_hist_seqr::bucket_size            1                       (Unspecified)
board.cache_hierarchy.ruby_system.RequestType.IFETCH.hit_latency_hist_seqr::max_bucket            9                       (Unspecified)
board.cache_hierarchy.ruby_system.RequestType.IFETCH.hit_latency_hist_seqr::samples     16594158                       (Unspecified)
board.cache_hierarchy.ruby_system.RequestType.IFETCH.hit_latency_hist_seqr::mean            1                       (Unspecified)
board.cache_hierarchy.ruby_system.RequestType.IFETCH.hit_latency_hist_seqr::gmean            1                       (Unspecified)
board.cache_hierarchy.ruby_system.RequestType.IFETCH.hit_latency_hist_seqr |           0      0.00%      0.00% |    16594158    100.00%    100.00% |           0      0.00%    100.00% |           0      0.00%    100.00% |           0      0.00%    100.00% |           0      0.00%    100.00% |           0      0.00%    100.00% |           0      0.00%    100.00% |           0      0.00%    100.00% |           0      0.00%    100.00% (Unspecified)
board.cache_hierarchy.ruby_system.RequestType.IFETCH.hit_latency_hist_seqr::total     16594158                       (Unspecified)
board.cache_hierarchy.ruby_system.RequestType.IFETCH.miss_latency_hist_seqr::bucket_size          256                       (Unspecified)
board.cache_hierarchy.ruby_system.RequestType.IFETCH.miss_latency_hist_seqr::max_bucket         2559                       (Unspecified)
board.cache_hierarchy.ruby_system.RequestType.IFETCH.miss_latency_hist_seqr::samples         5905                       (Unspecified)
board.cache_hierarchy.ruby_system.RequestType.IFETCH.miss_latency_hist_seqr::mean   171.064522                       (Unspecified)
board.cache_hierarchy.ruby_system.RequestType.IFETCH.miss_latency_hist_seqr::gmean   116.066773                       (Unspecified)
board.cache_hierarchy.ruby_system.RequestType.IFETCH.miss_latency_hist_seqr::stdev   143.521630                       (Unspecified)
board.cache_hierarchy.ruby_system.RequestType.IFETCH.miss_latency_hist_seqr |        4536     76.82%     76.82% |        1222     20.69%     97.51% |          98      1.66%     99.17% |          30      0.51%     99.68% |          17      0.29%     99.97% |           2      0.03%    100.00% |           0      0.00%    100.00% |           0      0.00%    100.00% |           0      0.00%    100.00% |           0      0.00%    100.00% (Unspecified)
board.cache_hierarchy.ruby_system.RequestType.IFETCH.miss_latency_hist_seqr::total         5905                       (Unspecified)
board.cache_hierarchy.ruby_system.RequestType.Load_Linked.latency_hist_seqr::bucket_size           32                       (Unspecified)
board.cache_hierarchy.ruby_system.RequestType.Load_Linked.latency_hist_seqr::max_bucket          319                       (Unspecified)
board.cache_hierarchy.ruby_system.RequestType.Load_Linked.latency_hist_seqr::samples           88                       (Unspecified)
board.cache_hierarchy.ruby_system.RequestType.Load_Linked.latency_hist_seqr::mean    14.909091                       (Unspecified)
board.cache_hierarchy.ruby_system.RequestType.Load_Linked.latency_hist_seqr::gmean     1.436431                       (Unspecified)
board.cache_hierarchy.ruby_system.RequestType.Load_Linked.latency_hist_seqr::stdev    52.382026                       (Unspecified)
board.cache_hierarchy.ruby_system.RequestType.Load_Linked.latency_hist_seqr |          82     93.18%     93.18% |           0      0.00%     93.18% |           0      0.00%     93.18% |           0      0.00%     93.18% |           0      0.00%     93.18% |           3      3.41%     96.59% |           2      2.27%     98.86% |           0      0.00%     98.86% |           1      1.14%    100.00% |           0      0.00%    100.00% (Unspecified)
board.cache_hierarchy.ruby_system.RequestType.Load_Linked.latency_hist_seqr::total           88                       (Unspecified)
board.cache_hierarchy.ruby_system.RequestType.Load_Linked.hit_latency_hist_seqr::bucket_size            1                       (Unspecified)
board.cache_hierarchy.ruby_system.RequestType.Load_Linked.hit_latency_hist_seqr::max_bucket            9                       (Unspecified)
board.cache_hierarchy.ruby_system.RequestType.Load_Linked.hit_latency_hist_seqr::samples           82                       (Unspecified)
board.cache_hierarchy.ruby_system.RequestType.Load_Linked.hit_latency_hist_seqr::mean            1                       (Unspecified)
board.cache_hierarchy.ruby_system.RequestType.Load_Linked.hit_latency_hist_seqr::gmean            1                       (Unspecified)
board.cache_hierarchy.ruby_system.RequestType.Load_Linked.hit_latency_hist_seqr |           0      0.00%      0.00% |          82    100.00%    100.00% |           0      0.00%    100.00% |           0      0.00%    100.00% |           0      0.00%    100.00% |           0      0.00%    100.00% |           0      0.00%    100.00% |           0      0.00%    100.00% |           0      0.00%    100.00% |           0      0.00%    100.00% (Unspecified)
board.cache_hierarchy.ruby_system.RequestType.Load_Linked.hit_latency_hist_seqr::total           82                       (Unspecified)
board.cache_hierarchy.ruby_system.RequestType.Load_Linked.miss_latency_hist_seqr::bucket_size           32                       (Unspecified)
board.cache_hierarchy.ruby_system.RequestType.Load_Linked.miss_latency_hist_seqr::max_bucket          319                       (Unspecified)
board.cache_hierarchy.ruby_system.RequestType.Load_Linked.miss_latency_hist_seqr::samples            6                       (Unspecified)
board.cache_hierarchy.ruby_system.RequestType.Load_Linked.miss_latency_hist_seqr::mean          205                       (Unspecified)
board.cache_hierarchy.ruby_system.RequestType.Load_Linked.miss_latency_hist_seqr::gmean   202.695364                       (Unspecified)
board.cache_hierarchy.ruby_system.RequestType.Load_Linked.miss_latency_hist_seqr::stdev    34.773553                       (Unspecified)
board.cache_hierarchy.ruby_system.RequestType.Load_Linked.miss_latency_hist_seqr |           0      0.00%      0.00% |           0      0.00%      0.00% |           0      0.00%      0.00% |           0      0.00%      0.00% |           0      0.00%      0.00% |           3     50.00%     50.00% |           2     33.33%     83.33% |           0      0.00%     83.33% |           1     16.67%    100.00% |           0      0.00%    100.00% (Unspecified)
board.cache_hierarchy.ruby_system.RequestType.Load_Linked.miss_latency_hist_seqr::total            6                       (Unspecified)
board.cache_hierarchy.ruby_system.RequestType.Store_Conditional.latency_hist_seqr::bucket_size            1                       (Unspecified)
board.cache_hierarchy.ruby_system.RequestType.Store_Conditional.latency_hist_seqr::max_bucket            9                       (Unspecified)
board.cache_hierarchy.ruby_system.RequestType.Store_Conditional.latency_hist_seqr::samples           88                       (Unspecified)
board.cache_hierarchy.ruby_system.RequestType.Store_Conditional.latency_hist_seqr::mean            1                       (Unspecified)
board.cache_hierarchy.ruby_system.RequestType.Store_Conditional.latency_hist_seqr::gmean            1                       (Unspecified)
board.cache_hierarchy.ruby_system.RequestType.Store_Conditional.latency_hist_seqr |           0      0.00%      0.00% |          88    100.00%    100.00% |           0      0.00%    100.00% |           0      0.00%    100.00% |           0      0.00%    100.00% |           0      0.00%    100.00% |           0      0.00%    100.00% |           0      0.00%    100.00% |           0      0.00%    100.00% |           0      0.00%    100.00% (Unspecified)
board.cache_hierarchy.ruby_system.RequestType.Store_Conditional.latency_hist_seqr::total           88                       (Unspecified)
board.cache_hierarchy.ruby_system.RequestType.Store_Conditional.hit_latency_hist_seqr::bucket_size            1                       (Unspecified)
board.cache_hierarchy.ruby_system.RequestType.Store_Conditional.hit_latency_hist_seqr::max_bucket            9                       (Unspecified)
board.cache_hierarchy.ruby_system.RequestType.Store_Conditional.hit_latency_hist_seqr::samples           88                       (Unspecified)
board.cache_hierarchy.ruby_system.RequestType.Store_Conditional.hit_latency_hist_seqr::mean            1                       (Unspecified)
board.cache_hierarchy.ruby_system.RequestType.Store_Conditional.hit_latency_hist_seqr::gmean            1                       (Unspecified)
board.cache_hierarchy.ruby_system.RequestType.Store_Conditional.hit_latency_hist_seqr |           0      0.00%      0.00% |          88    100.00%    100.00% |           0      0.00%    100.00% |           0      0.00%    100.00% |           0      0.00%    100.00% |           0      0.00%    100.00% |           0      0.00%    100.00% |           0      0.00%    100.00% |           0      0.00%    100.00% |           0      0.00%    100.00% (Unspecified)
board.cache_hierarchy.ruby_system.RequestType.Store_Conditional.hit_latency_hist_seqr::total           88                       (Unspecified)
board.cache_hierarchy.ruby_system.directory_controllers.power_state.pwrStateResidencyTicks::UNDEFINED  44811180963                       # Cumulative time (in ticks) in various power states (Tick)
board.cache_hierarchy.ruby_system.directory_controllers.requestToDir.m_msg_count       756166                       # Number of messages passed the buffer (Count)
board.cache_hierarchy.ruby_system.directory_controllers.requestToDir.m_buf_msgs     0.005619                       # Average number of messages in buffer ((Count/Tick))
board.cache_hierarchy.ruby_system.directory_controllers.requestToMemory.m_msg_count      1256262                       # Number of messages passed the buffer (Count)
board.cache_hierarchy.ruby_system.directory_controllers.requestToMemory.m_buf_msgs     0.009359                       # Average number of messages in buffer ((Count/Tick))
board.cache_hierarchy.ruby_system.directory_controllers.requestToMemory.m_stall_time      1034964                       # Total number of ticks messages were stalled in this buffer (Tick)
board.cache_hierarchy.ruby_system.directory_controllers.requestToMemory.m_avg_stall_time     0.823844                       # Average stall ticks per message ((Tick/Count))
board.cache_hierarchy.ruby_system.directory_controllers.responseFromDir.m_msg_count      1508236                       # Number of messages passed the buffer (Count)
board.cache_hierarchy.ruby_system.directory_controllers.responseFromDir.m_buf_msgs     0.011208                       # Average number of messages in buffer ((Count/Tick))
board.cache_hierarchy.ruby_system.directory_controllers.responseFromMemory.m_msg_count      1256262                       # Number of messages passed the buffer (Count)
board.cache_hierarchy.ruby_system.directory_controllers.responseFromMemory.m_buf_msgs     0.015466                       # Average number of messages in buffer ((Count/Tick))
board.cache_hierarchy.ruby_system.directory_controllers.responseToDir.m_msg_count       752070                       # Number of messages passed the buffer (Count)
board.cache_hierarchy.ruby_system.directory_controllers.responseToDir.m_buf_msgs     0.005589                       # Average number of messages in buffer ((Count/Tick))
board.cache_hierarchy.ruby_system.l1_controllers0.fullyBusyCycles           77                       # cycles for which number of transistions == max transitions (Unspecified)
board.cache_hierarchy.ruby_system.l1_controllers0.delayHistogram::samples       851910                       # delay_histogram (Unspecified)
board.cache_hierarchy.ruby_system.l1_controllers0.delayHistogram::mean     0.104807                       # delay_histogram (Unspecified)
board.cache_hierarchy.ruby_system.l1_controllers0.delayHistogram::stdev     0.877269                       # delay_histogram (Unspecified)
board.cache_hierarchy.ruby_system.l1_controllers0.delayHistogram::0-7       843943     99.06%     99.06% # delay_histogram (Unspecified)
board.cache_hierarchy.ruby_system.l1_controllers0.delayHistogram::8-15         7947      0.93%    100.00% # delay_histogram (Unspecified)
board.cache_hierarchy.ruby_system.l1_controllers0.delayHistogram::16-23           17      0.00%    100.00% # delay_histogram (Unspecified)
board.cache_hierarchy.ruby_system.l1_controllers0.delayHistogram::40-47            1      0.00%    100.00% # delay_histogram (Unspecified)
board.cache_hierarchy.ruby_system.l1_controllers0.delayHistogram::48-55            2      0.00%    100.00% # delay_histogram (Unspecified)
board.cache_hierarchy.ruby_system.l1_controllers0.delayHistogram::total       851910                       # delay_histogram (Unspecified)
board.cache_hierarchy.ruby_system.l1_controllers0.L1Dcache.m_demand_hits     21627793                       # Number of cache demand hits (Unspecified)
board.cache_hierarchy.ruby_system.l1_controllers0.L1Dcache.m_demand_misses       424194                       # Number of cache demand misses (Unspecified)
board.cache_hierarchy.ruby_system.l1_controllers0.L1Dcache.m_demand_accesses     22051987                       # Number of cache demand accesses (Unspecified)
board.cache_hierarchy.ruby_system.l1_controllers0.L1Icache.m_demand_hits     12645555                       # Number of cache demand hits (Unspecified)
board.cache_hierarchy.ruby_system.l1_controllers0.L1Icache.m_demand_misses         2183                       # Number of cache demand misses (Unspecified)
board.cache_hierarchy.ruby_system.l1_controllers0.L1Icache.m_demand_accesses     12647738                       # Number of cache demand accesses (Unspecified)
board.cache_hierarchy.ruby_system.l1_controllers0.mandatoryQueue.m_msg_count     34699725                       # Number of messages passed the buffer (Count)
board.cache_hierarchy.ruby_system.l1_controllers0.mandatoryQueue.m_buf_msgs     0.257860                       # Average number of messages in buffer ((Count/Tick))
board.cache_hierarchy.ruby_system.l1_controllers0.mandatoryQueue.m_stall_time         8991                       # Total number of ticks messages were stalled in this buffer (Tick)
board.cache_hierarchy.ruby_system.l1_controllers0.mandatoryQueue.m_stall_count            1                       # Number of times messages were stalled (Count)
board.cache_hierarchy.ruby_system.l1_controllers0.mandatoryQueue.m_avg_stall_time     0.000259                       # Average stall ticks per message ((Tick/Count))
board.cache_hierarchy.ruby_system.l1_controllers0.power_state.pwrStateResidencyTicks::UNDEFINED  44811180963                       # Cumulative time (in ticks) in various power states (Tick)
board.cache_hierarchy.ruby_system.l1_controllers0.prefetcher.RubyPrefetcher.numMissObserved            0                       # Number of misses observed (Unspecified)
board.cache_hierarchy.ruby_system.l1_controllers0.prefetcher.RubyPrefetcher.numAllocatedStreams            0                       # Number of streams allocated for prefetching (Unspecified)
board.cache_hierarchy.ruby_system.l1_controllers0.prefetcher.RubyPrefetcher.numPrefetchRequested            0                       # Number of prefetch requests made (Unspecified)
board.cache_hierarchy.ruby_system.l1_controllers0.prefetcher.RubyPrefetcher.numHits            0                       # Number of prefetched blocks accessed (for the first time) (Unspecified)
board.cache_hierarchy.ruby_system.l1_controllers0.prefetcher.RubyPrefetcher.numPartialHits            0                       # Number of misses observed for a block being prefetched (Unspecified)
board.cache_hierarchy.ruby_system.l1_controllers0.prefetcher.RubyPrefetcher.numPagesCrossed            0                       # Number of prefetches across pages (Unspecified)
board.cache_hierarchy.ruby_system.l1_controllers0.prefetcher.RubyPrefetcher.numMissedPrefetchedBlocks            0                       # Number of misses for blocks that were prefetched, yet missed (Unspecified)
board.cache_hierarchy.ruby_system.l1_controllers0.requestFromL1Cache.m_msg_count       812671                       # Number of messages passed the buffer (Count)
board.cache_hierarchy.ruby_system.l1_controllers0.requestFromL1Cache.m_buf_msgs     0.012078                       # Average number of messages in buffer ((Count/Tick))
board.cache_hierarchy.ruby_system.l1_controllers0.requestToL1Cache.m_msg_count        39232                       # Number of messages passed the buffer (Count)
board.cache_hierarchy.ruby_system.l1_controllers0.requestToL1Cache.m_buf_msgs     0.000292                       # Average number of messages in buffer ((Count/Tick))
board.cache_hierarchy.ruby_system.l1_controllers0.responseFromL1Cache.m_msg_count        39296                       # Number of messages passed the buffer (Count)
board.cache_hierarchy.ruby_system.l1_controllers0.responseFromL1Cache.m_buf_msgs     0.000584                       # Average number of messages in buffer ((Count/Tick))
board.cache_hierarchy.ruby_system.l1_controllers0.responseToL1Cache.m_msg_count       812678                       # Number of messages passed the buffer (Count)
board.cache_hierarchy.ruby_system.l1_controllers0.responseToL1Cache.m_buf_msgs     0.006039                       # Average number of messages in buffer ((Count/Tick))
board.cache_hierarchy.ruby_system.l1_controllers0.sequencer.power_state.pwrStateResidencyTicks::UNDEFINED  44811180963                       # Cumulative time (in ticks) in various power states (Tick)
board.cache_hierarchy.ruby_system.l1_controllers0.unblockFromL1Cache.m_msg_count       424186                       # Number of messages passed the buffer (Count)
board.cache_hierarchy.ruby_system.l1_controllers0.unblockFromL1Cache.m_buf_msgs     0.003152                       # Average number of messages in buffer ((Count/Tick))
board.cache_hierarchy.ruby_system.l1_controllers1.fullyBusyCycles            3                       # cycles for which number of transistions == max transitions (Unspecified)
board.cache_hierarchy.ruby_system.l1_controllers1.delayHistogram::samples        95087                       # delay_histogram (Unspecified)
board.cache_hierarchy.ruby_system.l1_controllers1.delayHistogram::mean     1.127389                       # delay_histogram (Unspecified)
board.cache_hierarchy.ruby_system.l1_controllers1.delayHistogram::stdev     2.669790                       # delay_histogram (Unspecified)
board.cache_hierarchy.ruby_system.l1_controllers1.delayHistogram::0-7        86260     90.72%     90.72% # delay_histogram (Unspecified)
board.cache_hierarchy.ruby_system.l1_controllers1.delayHistogram::8-15         8769      9.22%     99.94% # delay_histogram (Unspecified)
board.cache_hierarchy.ruby_system.l1_controllers1.delayHistogram::16-23           52      0.05%     99.99% # delay_histogram (Unspecified)
board.cache_hierarchy.ruby_system.l1_controllers1.delayHistogram::24-31            1      0.00%     99.99% # delay_histogram (Unspecified)
board.cache_hierarchy.ruby_system.l1_controllers1.delayHistogram::32-39            2      0.00%    100.00% # delay_histogram (Unspecified)
board.cache_hierarchy.ruby_system.l1_controllers1.delayHistogram::40-47            3      0.00%    100.00% # delay_histogram (Unspecified)
board.cache_hierarchy.ruby_system.l1_controllers1.delayHistogram::total        95087                       # delay_histogram (Unspecified)
board.cache_hierarchy.ruby_system.l1_controllers1.L1Dcache.m_demand_hits      1374895                       # Number of cache demand hits (Unspecified)
board.cache_hierarchy.ruby_system.l1_controllers1.L1Dcache.m_demand_misses        47165                       # Number of cache demand misses (Unspecified)
board.cache_hierarchy.ruby_system.l1_controllers1.L1Dcache.m_demand_accesses      1422060                       # Number of cache demand accesses (Unspecified)
board.cache_hierarchy.ruby_system.l1_controllers1.L1Icache.m_demand_hits       588375                       # Number of cache demand hits (Unspecified)
board.cache_hierarchy.ruby_system.l1_controllers1.L1Icache.m_demand_misses          527                       # Number of cache demand misses (Unspecified)
board.cache_hierarchy.ruby_system.l1_controllers1.L1Icache.m_demand_accesses       588902                       # Number of cache demand accesses (Unspecified)
board.cache_hierarchy.ruby_system.l1_controllers1.mandatoryQueue.m_msg_count      2010962                       # Number of messages passed the buffer (Count)
board.cache_hierarchy.ruby_system.l1_controllers1.mandatoryQueue.m_buf_msgs     0.014944                       # Average number of messages in buffer ((Count/Tick))
board.cache_hierarchy.ruby_system.l1_controllers1.power_state.pwrStateResidencyTicks::UNDEFINED  44811180963                       # Cumulative time (in ticks) in various power states (Tick)
board.cache_hierarchy.ruby_system.l1_controllers1.prefetcher.RubyPrefetcher.numMissObserved            0                       # Number of misses observed (Unspecified)
board.cache_hierarchy.ruby_system.l1_controllers1.prefetcher.RubyPrefetcher.numAllocatedStreams            0                       # Number of streams allocated for prefetching (Unspecified)
board.cache_hierarchy.ruby_system.l1_controllers1.prefetcher.RubyPrefetcher.numPrefetchRequested            0                       # Number of prefetch requests made (Unspecified)
board.cache_hierarchy.ruby_system.l1_controllers1.prefetcher.RubyPrefetcher.numHits            0                       # Number of prefetched blocks accessed (for the first time) (Unspecified)
[...]
board.processor.cores7.core.commitStats0.committedInstType::SimdReduceAlu            0      0.00%     44.43% # Class of committed instruction. (Count)
board.processor.cores7.core.commitStats0.committedInstType::SimdReduceCmp            0      0.00%     44.43% # Class of committed instruction. (Count)
board.processor.cores7.core.commitStats0.committedInstType::SimdFloatReduceAdd            0      0.00%     44.43% # Class of committed instruction. (Count)
board.processor.cores7.core.commitStats0.committedInstType::SimdFloatReduceCmp            0      0.00%     44.43% # Class of committed instruction. (Count)
board.processor.cores7.core.commitStats0.committedInstType::SimdAes            0      0.00%     44.43% # Class of committed instruction. (Count)
board.processor.cores7.core.commitStats0.committedInstType::SimdAesMix            0      0.00%     44.43% # Class of committed instruction. (Count)
board.processor.cores7.core.commitStats0.committedInstType::SimdSha1Hash            0      0.00%     44.43% # Class of committed instruction. (Count)
board.processor.cores7.core.commitStats0.committedInstType::SimdSha1Hash2            0      0.00%     44.43% # Class of committed instruction. (Count)
board.processor.cores7.core.commitStats0.committedInstType::SimdSha256Hash            0      0.00%     44.43% # Class of committed instruction. (Count)
board.processor.cores7.core.commitStats0.committedInstType::SimdSha256Hash2            0      0.00%     44.43% # Class of committed instruction. (Count)
board.processor.cores7.core.commitStats0.committedInstType::SimdShaSigma2            0      0.00%     44.43% # Class of committed instruction. (Count)
board.processor.cores7.core.commitStats0.committedInstType::SimdShaSigma3            0      0.00%     44.43% # Class of committed instruction. (Count)
board.processor.cores7.core.commitStats0.committedInstType::SimdSha3            0      0.00%     44.43% # Class of committed instruction. (Count)
board.processor.cores7.core.commitStats0.committedInstType::SimdSm4e            0      0.00%     44.43% # Class of committed instruction. (Count)
board.processor.cores7.core.commitStats0.committedInstType::SimdCrc            0      0.00%     44.43% # Class of committed instruction. (Count)
board.processor.cores7.core.commitStats0.committedInstType::SimdPredAlu            0      0.00%     44.43% # Class of committed instruction. (Count)
board.processor.cores7.core.commitStats0.committedInstType::SimdDotProd            0      0.00%     44.43% # Class of committed instruction. (Count)
board.processor.cores7.core.commitStats0.committedInstType::Matrix            0      0.00%     44.43% # Class of committed instruction. (Count)
board.processor.cores7.core.commitStats0.committedInstType::MatrixMov            0      0.00%     44.43% # Class of committed instruction. (Count)
board.processor.cores7.core.commitStats0.committedInstType::MatrixOP            0      0.00%     44.43% # Class of committed instruction. (Count)
board.processor.cores7.core.commitStats0.committedInstType::MemRead      1044379     34.50%     78.93% # Class of committed instruction. (Count)
board.processor.cores7.core.commitStats0.committedInstType::MemWrite       137852      4.55%     83.48% # Class of committed instruction. (Count)
board.processor.cores7.core.commitStats0.committedInstType::FloatMemRead       375001     12.39%     95.87% # Class of committed instruction. (Count)
board.processor.cores7.core.commitStats0.committedInstType::FloatMemWrite       125013      4.13%    100.00% # Class of committed instruction. (Count)
board.processor.cores7.core.commitStats0.committedInstType::InstPrefetch            0      0.00%    100.00% # Class of committed instruction. (Count)
board.processor.cores7.core.commitStats0.committedInstType::SimdUnitStrideLoad            0      0.00%    100.00% # Class of committed instruction. (Count)
board.processor.cores7.core.commitStats0.committedInstType::SimdUnitStrideStore            0      0.00%    100.00% # Class of committed instruction. (Count)
board.processor.cores7.core.commitStats0.committedInstType::SimdUnitStrideMaskLoad            0      0.00%    100.00% # Class of committed instruction. (Count)
board.processor.cores7.core.commitStats0.committedInstType::SimdUnitStrideMaskStore            0      0.00%    100.00% # Class of committed instruction. (Count)
board.processor.cores7.core.commitStats0.committedInstType::SimdStridedLoad            0      0.00%    100.00% # Class of committed instruction. (Count)
board.processor.cores7.core.commitStats0.committedInstType::SimdStridedStore            0      0.00%    100.00% # Class of committed instruction. (Count)
board.processor.cores7.core.commitStats0.committedInstType::SimdIndexedLoad            0      0.00%    100.00% # Class of committed instruction. (Count)
board.processor.cores7.core.commitStats0.committedInstType::SimdIndexedStore            0      0.00%    100.00% # Class of committed instruction. (Count)
board.processor.cores7.core.commitStats0.committedInstType::SimdWholeRegisterLoad            0      0.00%    100.00% # Class of committed instruction. (Count)
board.processor.cores7.core.commitStats0.committedInstType::SimdWholeRegisterStore            0      0.00%    100.00% # Class of committed instruction. (Count)
board.processor.cores7.core.commitStats0.committedInstType::SimdUnitStrideFaultOnlyFirstLoad            0      0.00%    100.00% # Class of committed instruction. (Count)
board.processor.cores7.core.commitStats0.committedInstType::SimdUnitStrideSegmentedLoad            0      0.00%    100.00% # Class of committed instruction. (Count)
board.processor.cores7.core.commitStats0.committedInstType::SimdUnitStrideSegmentedStore            0      0.00%    100.00% # Class of committed instruction. (Count)
board.processor.cores7.core.commitStats0.committedInstType::SimdUnitStrideSegmentedFaultOnlyFirstLoad            0      0.00%    100.00% # Class of committed instruction. (Count)
board.processor.cores7.core.commitStats0.committedInstType::SimdStrideSegmentedLoad            0      0.00%    100.00% # Class of committed instruction. (Count)
board.processor.cores7.core.commitStats0.committedInstType::SimdStrideSegmentedStore            0      0.00%    100.00% # Class of committed instruction. (Count)
board.processor.cores7.core.commitStats0.committedInstType::SimdExt            0      0.00%    100.00% # Class of committed instruction. (Count)
board.processor.cores7.core.commitStats0.committedInstType::SimdFloatExt            0      0.00%    100.00% # Class of committed instruction. (Count)
board.processor.cores7.core.commitStats0.committedInstType::SimdConfig            0      0.00%    100.00% # Class of committed instruction. (Count)
board.processor.cores7.core.commitStats0.committedInstType::SimdBf16Add            0      0.00%    100.00% # Class of committed instruction. (Count)
board.processor.cores7.core.commitStats0.committedInstType::SimdBf16Cmp            0      0.00%    100.00% # Class of committed instruction. (Count)
board.processor.cores7.core.commitStats0.committedInstType::SimdBf16Cvt            0      0.00%    100.00% # Class of committed instruction. (Count)
board.processor.cores7.core.commitStats0.committedInstType::SimdBf16DotProd            0      0.00%    100.00% # Class of committed instruction. (Count)
board.processor.cores7.core.commitStats0.committedInstType::SimdBf16MatMultAcc            0      0.00%    100.00% # Class of committed instruction. (Count)
board.processor.cores7.core.commitStats0.committedInstType::SimdBf16Mult            0      0.00%    100.00% # Class of committed instruction. (Count)
board.processor.cores7.core.commitStats0.committedInstType::SimdBf16MultAcc            0      0.00%    100.00% # Class of committed instruction. (Count)
board.processor.cores7.core.commitStats0.committedInstType::Bf16Cvt            0      0.00%    100.00% # Class of committed instruction. (Count)
board.processor.cores7.core.commitStats0.committedInstType::System            0      0.00%    100.00% # Class of committed instruction. (Count)
board.processor.cores7.core.commitStats0.committedInstType::total      3027484                       # Class of committed instruction. (Count)
board.processor.cores7.core.commitStats0.committedControl::IsControl       150373                       # Class of control type instructions committed (Count)
board.processor.cores7.core.commitStats0.committedControl::IsDirectControl       144043                       # Class of control type instructions committed (Count)
board.processor.cores7.core.commitStats0.committedControl::IsIndirectControl         6330                       # Class of control type instructions committed (Count)
board.processor.cores7.core.commitStats0.committedControl::IsCondControl       137696                       # Class of control type instructions committed (Count)
board.processor.cores7.core.commitStats0.committedControl::IsUncondControl        12677                       # Class of control type instructions committed (Count)
board.processor.cores7.core.commitStats0.committedControl::IsCall         6333                       # Class of control type instructions committed (Count)
board.processor.cores7.core.commitStats0.committedControl::IsReturn         6325                       # Class of control type instructions committed (Count)
board.processor.cores7.core.commitStats0.functionCalls         6333                       # Number of function calls committed (Count)
board.processor.cores7.core.commitStats0.numCallsReturns        12658                       # Number of function calls and returns committed (Count)
board.processor.cores7.core.executeStats0.numInsts      3027477                       # Number of executed instructions (Count)
board.processor.cores7.core.executeStats0.numNop            0                       # Number of nop insts executed (Count)
board.processor.cores7.core.executeStats0.numBranches       150373                       # Number of branches executed (Count)
board.processor.cores7.core.executeStats0.numLoadInsts      1419376                       # Number of load instructions executed (Count)
board.processor.cores7.core.executeStats0.numStoreInsts       262869                       # Number of stores executed (Count)
board.processor.cores7.core.executeStats0.instRate     0.174359                       # Inst execution rate ((Count/Cycle))
board.processor.cores7.core.executeStats0.numFpAluAccesses       750014                       # Number of float alu accesses (Count)
board.processor.cores7.core.executeStats0.numFpRegReads       625013                       # Number of times the floating registers were read (Count)
board.processor.cores7.core.executeStats0.numFpRegWrites       625001                       # Number of times the floating registers were written (Count)
board.processor.cores7.core.executeStats0.numIntAluAccesses      2777819                       # Number of integer alu accesses (Count)
board.processor.cores7.core.executeStats0.numIntRegReads      3415433                       # Number of times the integer registers were read (Count)
board.processor.cores7.core.executeStats0.numIntRegWrites      1989267                       # Number of times the integer registers were written (Count)
board.processor.cores7.core.executeStats0.numMemRefs      1682245                       # Number of memory refs (Count)
board.processor.cores7.core.executeStats0.numVecAluAccesses            0                       # Number of vector alu accesses (Count)
board.processor.cores7.core.executeStats0.numDiscardedOps          389                       # Number of ops (including micro ops) which were discarded before commit (Count)
board.processor.cores7.core.fetch2.totalInstructions      3029233                       # Total number of instructions successfully decoded (Count)
board.processor.cores7.core.fetch2.intInstructions      1096180                       # Number of integer instructions successfully decoded (Count)
board.processor.cores7.core.fetch2.fpInstructions       250002                       # Number of floating point instructions successfully decoded (Count)
board.processor.cores7.core.fetch2.vecInstructions            0                       # Number of SIMD instructions successfully decoded (Count)
board.processor.cores7.core.fetch2.loadInstructions      1419950                       # Number of memory load instructions successfully decoded (Count)
board.processor.cores7.core.fetch2.storeInstructions       263017                       # Number of memory store instructions successfully decoded (Count)
board.processor.cores7.core.fetch2.amoInstructions            0                       # Number of memory atomic instructions successfully decoded (Count)
board.processor.cores7.core.fetchStats0.numInsts      3029233                       # Number of instructions fetched (thread level) (Count)
board.processor.cores7.core.fetchStats0.numOps            0                       # Number of ops (including micro ops) fetched (thread level) (Count)
board.processor.cores7.core.fetchStats0.fetchRate     0.174460                       # Number of inst fetches per cycle ((Count/Cycle))
board.processor.cores7.core.fetchStats0.numBranches       150711                       # Number of branches fetched (Count)
board.processor.cores7.core.fetchStats0.branchRate     0.008680                       # Number of branch fetches per cycle (Ratio)
board.processor.cores7.core.fetchStats0.numFetchSuspends            0                       # Number of times Execute suspended instruction fetching (Count)
board.processor.cores7.core.mmu.dtb.readHits            0                       # read hits (Count)
board.processor.cores7.core.mmu.dtb.readMisses            0                       # read misses (Count)
board.processor.cores7.core.mmu.dtb.readAccesses            0                       # read accesses (Count)
board.processor.cores7.core.mmu.dtb.writeHits            0                       # write hits (Count)
board.processor.cores7.core.mmu.dtb.writeMisses            0                       # write misses (Count)
board.processor.cores7.core.mmu.dtb.writeAccesses            0                       # write accesses (Count)
board.processor.cores7.core.mmu.dtb.hits            0                       # Total TLB (read and write) hits (Count)
board.processor.cores7.core.mmu.dtb.misses            0                       # Total TLB (read and write) misses (Count)
board.processor.cores7.core.mmu.dtb.accesses            0                       # Total TLB (read and write) accesses (Count)
board.processor.cores7.core.mmu.dtb.walker.num_4kb_walks            0                       # Completed page walks with 4KB pages (Count)
board.processor.cores7.core.mmu.dtb.walker.num_64kb_walks            0                       # Completed page walks with 64KB pages (Count)
board.processor.cores7.core.mmu.dtb.walker.num_2mb_walks            0                       # Completed page walks with 2MB pages (Count)
board.processor.cores7.core.mmu.dtb.walker.power_state.pwrStateResidencyTicks::UNDEFINED  44811180963                       # Cumulative time (in ticks) in various power states (Tick)
board.processor.cores7.core.mmu.itb.readHits            0                       # read hits (Count)
board.processor.cores7.core.mmu.itb.readMisses            0                       # read misses (Count)
board.processor.cores7.core.mmu.itb.readAccesses            0                       # read accesses (Count)
board.processor.cores7.core.mmu.itb.writeHits            0                       # write hits (Count)
board.processor.cores7.core.mmu.itb.writeMisses            0                       # write misses (Count)
board.processor.cores7.core.mmu.itb.writeAccesses            0                       # write accesses (Count)
board.processor.cores7.core.mmu.itb.hits            0                       # Total TLB (read and write) hits (Count)
board.processor.cores7.core.mmu.itb.misses            0                       # Total TLB (read and write) misses (Count)
board.processor.cores7.core.mmu.itb.accesses            0                       # Total TLB (read and write) accesses (Count)
board.processor.cores7.core.mmu.itb.walker.num_4kb_walks            0                       # Completed page walks with 4KB pages (Count)
board.processor.cores7.core.mmu.itb.walker.num_64kb_walks            0                       # Completed page walks with 64KB pages (Count)
board.processor.cores7.core.mmu.itb.walker.num_2mb_walks            0                       # Completed page walks with 2MB pages (Count)
board.processor.cores7.core.mmu.itb.walker.power_state.pwrStateResidencyTicks::UNDEFINED  44811180963                       # Cumulative time (in ticks) in various power states (Tick)
board.processor.cores7.core.power_state.pwrStateResidencyTicks::ON  44811180963                       # Cumulative time (in ticks) in various power states (Tick)
board.processor.cores7.core.thread_0.numInsts      3027477                       # Number of Instructions committed (Count)
board.processor.cores7.core.thread_0.numOps      3027484                       # Number of Ops committed (Count)
board.processor.cores7.core.thread_0.numMemRefs      1682245                       # Number of Memory References (Count)
board.workload.inst.arm                             0                       # number of arm instructions executed (Count)
board.workload.inst.quiesce                         0                       # number of quiesce instructions executed (Count)
board.processor.cores0.core.idleCycles       89078853                       # Total number of cycles that the object has spent stopped (Unspecified)
board.processor.cores0.core.tickCycles       45489258                       # Number of cycles that the object actually ticked (Unspecified)
board.processor.cores1.core.idleCycles       13400428                       # Total number of cycles that the object has spent stopped (Unspecified)
board.processor.cores1.core.tickCycles        4004645                       # Number of cycles that the object actually ticked (Unspecified)
board.processor.cores2.core.idleCycles       13519467                       # Total number of cycles that the object has spent stopped (Unspecified)
board.processor.cores2.core.tickCycles        3876239                       # Number of cycles that the object actually ticked (Unspecified)
board.processor.cores3.core.idleCycles       13428628                       # Total number of cycles that the object has spent stopped (Unspecified)
board.processor.cores3.core.tickCycles        3960372                       # Number of cycles that the object actually ticked (Unspecified)
board.processor.cores4.core.idleCycles       13516963                       # Total number of cycles that the object has spent stopped (Unspecified)
board.processor.cores4.core.tickCycles        3864878                       # Number of cycles that the object actually ticked (Unspecified)
board.processor.cores5.core.idleCycles       13426982                       # Total number of cycles that the object has spent stopped (Unspecified)
board.processor.cores5.core.tickCycles        3947510                       # Number of cycles that the object actually ticked (Unspecified)
board.processor.cores6.core.idleCycles       13435838                       # Total number of cycles that the object has spent stopped (Unspecified)
board.processor.cores6.core.tickCycles        3932964                       # Number of cycles that the object actually ticked (Unspecified)
board.processor.cores7.core.idleCycles       13435960                       # Total number of cycles that the object has spent stopped (Unspecified)
board.processor.cores7.core.tickCycles        3927509                       # Number of cycles that the object actually ticked (Unspecified)

---------- End Simulation Statistics   ----------
