
---------- Begin Simulation Statistics ----------
simSeconds                                   0.000354                       # Number of seconds simulated (Second)
simTicks                                    354350628                       # Number of ticks simulated (Tick)
finalTick                                  1870752042                       # Number of ticks from beginning of simulation (restored from checkpoints and never reset) (Tick)
simFreq                                  1000000000000                       # The number of ticks per simulated second ((Tick/Second))
hostSeconds                                     15.92                       # Real time elapsed on the host (Second)
hostTickRate                                 22252722                       # The number of ticks simulated per host second (ticks/s) ((Tick/Second))
hostMemory                                    5022088                       # Number of bytes of host memory used (Byte)
simInsts                                      2514048                       # Number of instructions simulated (Count)
simOps                                        2514305                       # Number of ops (including micro ops) simulated (Count)
hostInstRate                                   157877                       # Simulator instruction rate (inst/s) ((Count/Second))
hostOpRate                                     157893                       # Simulator op (including micro ops) rate (op/s) ((Count/Second))
board.cache_hierarchy.ruby_system.delayHistogram::bucket_size          512                       # delay histogram for all message (Unspecified)
board.cache_hierarchy.ruby_system.delayHistogram::max_bucket         5119                       # delay histogram for all message (Unspecified)
board.cache_hierarchy.ruby_system.delayHistogram::samples       622573                       # delay histogram for all message (Unspecified)
board.cache_hierarchy.ruby_system.delayHistogram::mean    10.778322                       # delay histogram for all message (Unspecified)
board.cache_hierarchy.ruby_system.delayHistogram::stdev    31.963247                       # delay histogram for all message (Unspecified)
board.cache_hierarchy.ruby_system.delayHistogram |      622562    100.00%    100.00% |           2      0.00%    100.00% |           2      0.00%    100.00% |           2      0.00%    100.00% |           2      0.00%    100.00% |           2      0.00%    100.00% |           1      0.00%    100.00% |           0      0.00%    100.00% |           0      0.00%    100.00% |           0      0.00%    100.00% # delay histogram for all message (Unspecified)
board.cache_hierarchy.ruby_system.delayHistogram::total       622573                       # delay histogram for all message (Unspecified)
board.cache_hierarchy.ruby_system.m_outstandReqHistSeqr::bucket_size            1                       (Unspecified)
board.cache_hierarchy.ruby_system.m_outstandReqHistSeqr::max_bucket            9                       (Unspecified)
board.cache_hierarchy.ruby_system.m_outstandReqHistSeqr::samples      4477126                       (Unspecified)
board.cache_hierarchy.ruby_system.m_outstandReqHistSeqr::mean            1                       (Unspecified)
board.cache_hierarchy.ruby_system.m_outstandReqHistSeqr::gmean            1                       (Unspecified)
board.cache_hierarchy.ruby_system.m_outstandReqHistSeqr |           0      0.00%      0.00% |     4477126    100.00%    100.00% |           0      0.00%    100.00% |           0      0.00%    100.00% |           0      0.00%    100.00% |           0      0.00%    100.00% |           0      0.00%    100.00% |           0      0.00%    100.00% |           0      0.00%    100.00% |           0      0.00%    100.00% (Unspecified)
board.cache_hierarchy.ruby_system.m_outstandReqHistSeqr::total      4477126                       (Unspecified)
board.cache_hierarchy.ruby_system.m_latencyHistSeqr::bucket_size          256                       (Unspecified)
board.cache_hierarchy.ruby_system.m_latencyHistSeqr::max_bucket         2559                       (Unspecified)
board.cache_hierarchy.ruby_system.m_latencyHistSeqr::samples      4477120                       (Unspecified)
board.cache_hierarchy.ruby_system.m_latencyHistSeqr::mean     2.374497                       (Unspecified)
board.cache_hierarchy.ruby_system.m_latencyHistSeqr::gmean     1.113475                       (Unspecified)
board.cache_hierarchy.ruby_system.m_latencyHistSeqr::stdev    10.342313                       (Unspecified)
board.cache_hierarchy.ruby_system.m_latencyHistSeqr |     4476821     99.99%     99.99% |         180      0.00%    100.00% |          58      0.00%    100.00% |          48      0.00%    100.00% |           4      0.00%    100.00% |           9      0.00%    100.00% |           0      0.00%    100.00% |           0      0.00%    100.00% |           0      0.00%    100.00% |           0      0.00%    100.00% (Unspecified)
board.cache_hierarchy.ruby_system.m_latencyHistSeqr::total      4477120                       (Unspecified)
board.cache_hierarchy.ruby_system.m_hitLatencyHistSeqr::bucket_size            1                       (Unspecified)
board.cache_hierarchy.ruby_system.m_hitLatencyHistSeqr::max_bucket            9                       (Unspecified)
board.cache_hierarchy.ruby_system.m_hitLatencyHistSeqr::samples      4346850                       (Unspecified)
board.cache_hierarchy.ruby_system.m_hitLatencyHistSeqr::mean            1                       (Unspecified)
board.cache_hierarchy.ruby_system.m_hitLatencyHistSeqr::gmean            1                       (Unspecified)
board.cache_hierarchy.ruby_system.m_hitLatencyHistSeqr |           0      0.00%      0.00% |     4346850    100.00%    100.00% |           0      0.00%    100.00% |           0      0.00%    100.00% |           0      0.00%    100.00% |           0      0.00%    100.00% |           0      0.00%    100.00% |           0      0.00%    100.00% |           0      0.00%    100.00% |           0      0.00%    100.00% (Unspecified)
board.cache_hierarchy.ruby_system.m_hitLatencyHistSeqr::total      4346850                       (Unspecified)
board.cache_hierarchy.ruby_system.m_missLatencyHistSeqr::bucket_size          256                       (Unspecified)
board.cache_hierarchy.ruby_system.m_missLatencyHistSeqr::max_bucket         2559                       (Unspecified)
board.cache_hierarchy.ruby_system.m_missLatencyHistSeqr::samples       130270                       (Unspecified)
board.cache_hierarchy.ruby_system.m_missLatencyHistSeqr::mean    48.238735                       (Unspecified)
board.cache_hierarchy.ruby_system.m_missLatencyHistSeqr::gmean    40.208656                       (Unspecified)
board.cache_hierarchy.ruby_system.m_missLatencyHistSeqr::stdev    38.853083                       (Unspecified)
board.cache_hierarchy.ruby_system.m_missLatencyHistSeqr |      129971     99.77%     99.77% |         180      0.14%     99.91% |          58      0.04%     99.95% |          48      0.04%     99.99% |           4      0.00%     99.99% |           9      0.01%    100.00% |           0      0.00%    100.00% |           0      0.00%    100.00% |           0      0.00%    100.00% |           0      0.00%    100.00% (Unspecified)
board.cache_hierarchy.ruby_system.m_missLatencyHistSeqr::total       130270                       (Unspecified)
board.cache_hierarchy.ruby_system.delayVCHist.vnet_0::bucket_size          512                       # delay histogram for vnet_0 (Unspecified)
board.cache_hierarchy.ruby_system.delayVCHist.vnet_0::max_bucket         5119                       # delay histogram for vnet_0 (Unspecified)
board.cache_hierarchy.ruby_system.delayVCHist.vnet_0::samples       229337                       # delay histogram for vnet_0 (Unspecified)
board.cache_hierarchy.ruby_system.delayVCHist.vnet_0::mean    28.857751                       # delay histogram for vnet_0 (Unspecified)
board.cache_hierarchy.ruby_system.delayVCHist.vnet_0::stdev    47.477544                       # delay histogram for vnet_0 (Unspecified)
board.cache_hierarchy.ruby_system.delayVCHist.vnet_0 |      229326    100.00%    100.00% |           2      0.00%    100.00% |           2      0.00%    100.00% |           2      0.00%    100.00% |           2      0.00%    100.00% |           2      0.00%    100.00% |           1      0.00%    100.00% |           0      0.00%    100.00% |           0      0.00%    100.00% |           0      0.00%    100.00% # delay histogram for vnet_0 (Unspecified)
board.cache_hierarchy.ruby_system.delayVCHist.vnet_0::total       229337                       # delay histogram for vnet_0 (Unspecified)
board.cache_hierarchy.ruby_system.delayVCHist.vnet_1::bucket_size            4                       # delay histogram for vnet_1 (Unspecified)
board.cache_hierarchy.ruby_system.delayVCHist.vnet_1::max_bucket           39                       # delay histogram for vnet_1 (Unspecified)
board.cache_hierarchy.ruby_system.delayVCHist.vnet_1::samples       246448                       # delay histogram for vnet_1 (Unspecified)
board.cache_hierarchy.ruby_system.delayVCHist.vnet_1::mean     0.373840                       # delay histogram for vnet_1 (Unspecified)
board.cache_hierarchy.ruby_system.delayVCHist.vnet_1::stdev     1.283904                       # delay histogram for vnet_1 (Unspecified)
board.cache_hierarchy.ruby_system.delayVCHist.vnet_1 |      237379     96.32%     96.32% |        7473      3.03%     99.35% |         953      0.39%     99.74% |         440      0.18%     99.92% |         146      0.06%     99.98% |          38      0.02%     99.99% |          19      0.01%    100.00% |           0      0.00%    100.00% |           0      0.00%    100.00% |           0      0.00%    100.00% # delay histogram for vnet_1 (Unspecified)
board.cache_hierarchy.ruby_system.delayVCHist.vnet_1::total       246448                       # delay histogram for vnet_1 (Unspecified)
board.cache_hierarchy.ruby_system.delayVCHist.vnet_2::bucket_size            1                       # delay histogram for vnet_2 (Unspecified)
board.cache_hierarchy.ruby_system.delayVCHist.vnet_2::max_bucket            9                       # delay histogram for vnet_2 (Unspecified)
board.cache_hierarchy.ruby_system.delayVCHist.vnet_2::samples       146788                       # delay histogram for vnet_2 (Unspecified)
board.cache_hierarchy.ruby_system.delayVCHist.vnet_2::mean     0.000068                       # delay histogram for vnet_2 (Unspecified)
board.cache_hierarchy.ruby_system.delayVCHist.vnet_2::stdev     0.011672                       # delay histogram for vnet_2 (Unspecified)
board.cache_hierarchy.ruby_system.delayVCHist.vnet_2 |      146783    100.00%    100.00% |           0      0.00%    100.00% |           5      0.00%    100.00% |           0      0.00%    100.00% |           0      0.00%    100.00% |           0      0.00%    100.00% |           0      0.00%    100.00% |           0      0.00%    100.00% |           0      0.00%    100.00% |           0      0.00%    100.00% # delay histogram for vnet_2 (Unspecified)
board.cache_hierarchy.ruby_system.delayVCHist.vnet_2::total       146788                       # delay histogram for vnet_2 (Unspecified)
board.cache_hierarchy.ruby_system.Directory_Controller.Fetch         2921      0.00%      0.00% (Unspecified)
board.cache_hierarchy.ruby_system.Directory_Controller.Data         1896      0.00%      0.00% (Unspecified)
board.cache_hierarchy.ruby_system.Directory_Controller.Memory_Data         2921      0.00%      0.00% (Unspecified)
board.cache_hierarchy.ruby_system.Directory_Controller.Memory_Ack         1896      0.00%      0.00% (Unspecified)
board.cache_hierarchy.ruby_system.Directory_Controller.CleanReplacement         1025      0.00%      0.00% (Unspecified)
board.cache_hierarchy.ruby_system.Directory_Controller.I.Fetch         2921      0.00%      0.00% (Unspecified)
board.cache_hierarchy.ruby_system.Directory_Controller.M.Data         1896      0.00%      0.00% (Unspecified)
board.cache_hierarchy.ruby_system.Directory_Controller.M.CleanReplacement         1025      0.00%      0.00% (Unspecified)
board.cache_hierarchy.ruby_system.Directory_Controller.IM.Memory_Data         2921      0.00%      0.00% (Unspecified)
board.cache_hierarchy.ruby_system.Directory_Controller.MI.Memory_Ack         1896      0.00%      0.00% (Unspecified)
board.cache_hierarchy.ruby_system.L1Cache_Controller.Load |       78035      8.02%      8.02% |       82200      8.44%     16.46% |       55462      5.70%     22.15% |       54906      5.64%     27.79% |       54503      5.60%     33.39% |       53915      5.54%     38.93% |       53474      5.49%     44.42% |       52655      5.41%     49.83% |       52697      5.41%     55.24% |       51640      5.30%     60.55% |       65813      6.76%     67.31% |       65029      6.68%     73.99% |       64265      6.60%     80.59% |       63675      6.54%     87.13% |       63036      6.47%     93.60% |       62286      6.40%    100.00% (Unspecified)
board.cache_hierarchy.ruby_system.L1Cache_Controller.Load::total       973591                       (Unspecified)
board.cache_hierarchy.ruby_system.L1Cache_Controller.Ifetch |      289111      8.78%      8.78% |      306382      9.30%     18.08% |      180326      5.47%     23.55% |      177696      5.39%     28.95% |      175805      5.34%     34.28% |      173033      5.25%     39.54% |      170954      5.19%     44.73% |      167093      5.07%     49.80% |      167291      5.08%     54.88% |      162308      4.93%     59.81% |      229127      6.96%     66.76% |      225424      6.84%     73.61% |      221820      6.73%     80.34% |      219042      6.65%     86.99% |      216034      6.56%     93.55% |      212519      6.45%    100.00% (Unspecified)
board.cache_hierarchy.ruby_system.L1Cache_Controller.Ifetch::total      3293965                       (Unspecified)
board.cache_hierarchy.ruby_system.L1Cache_Controller.Store |       21028     10.04%     10.04% |       18992      9.07%     19.10% |       11352      5.42%     24.52% |       11195      5.34%     29.87% |       11078      5.29%     35.15% |       10910      5.21%     40.36% |       10784      5.15%     45.51% |       10550      5.04%     50.55% |       10562      5.04%     55.59% |       10260      4.90%     60.49% |       14310      6.83%     67.32% |       14085      6.72%     74.04% |       13867      6.62%     80.66% |       13699      6.54%     87.20% |       13516      6.45%     93.65% |       13303      6.35%    100.00% (Unspecified)
board.cache_hierarchy.ruby_system.L1Cache_Controller.Store::total       209491                       (Unspecified)
board.cache_hierarchy.ruby_system.L1Cache_Controller.Inv |        2500      3.07%      3.07% |        2224      2.73%      5.81% |        5875      7.22%     13.03% |        6145      7.55%     20.58% |        6092      7.49%     28.07% |        6172      7.59%     35.65% |        6333      7.78%     43.44% |        6516      8.01%     51.44% |        6812      8.37%     59.82% |        6980      8.58%     68.40% |        3143      3.86%     72.26% |        4300      5.28%     77.54% |        4086      5.02%     82.56% |        4625      5.68%     88.25% |        4613      5.67%     93.92% |        4948      6.08%    100.00% (Unspecified)
board.cache_hierarchy.ruby_system.L1Cache_Controller.Inv::total        81364                       (Unspecified)
board.cache_hierarchy.ruby_system.L1Cache_Controller.L1_Replacement |         818    100.00%    100.00% |           0      0.00%    100.00% |           0      0.00%    100.00% |           0      0.00%    100.00% |           0      0.00%    100.00% |           0      0.00%    100.00% |           0      0.00%    100.00% |           0      0.00%    100.00% |           0      0.00%    100.00% |           0      0.00%    100.00% |           0      0.00%    100.00% |           0      0.00%    100.00% |           0      0.00%    100.00% |           0      0.00%    100.00% |           0      0.00%    100.00% |           0      0.00%    100.00% (Unspecified)
board.cache_hierarchy.ruby_system.L1Cache_Controller.L1_Replacement::total          818                       (Unspecified)
board.cache_hierarchy.ruby_system.L1Cache_Controller.Fwd_GETX |        2076      5.62%      5.62% |        1951      5.28%     10.90% |        2328      6.30%     17.20% |        2034      5.51%     22.71% |        2133      5.77%     28.48% |        2049      5.55%     34.03% |        1953      5.29%     39.32% |        1727      4.67%     43.99% |        1439      3.90%     47.89% |        1245      3.37%     51.26% |        3317      8.98%     60.23% |        3099      8.39%     68.62% |        3295      8.92%     77.54% |        3492      9.45%     87.00% |        3263      8.83%     95.83% |        1541      4.17%    100.00% (Unspecified)
board.cache_hierarchy.ruby_system.L1Cache_Controller.Fwd_GETX::total        36942                       (Unspecified)
board.cache_hierarchy.ruby_system.L1Cache_Controller.Fwd_GETS |        2070      7.27%      7.27% |        1929      6.77%     14.04% |        1774      6.23%     20.27% |        2047      7.19%     27.46% |        1969      6.91%     34.37% |        2052      7.20%     41.57% |        2149      7.55%     49.12% |        2374      8.34%     57.45% |        2663      9.35%     66.80% |        2857     10.03%     76.83% |         785      2.76%     79.59% |        1000      3.51%     83.10% |         806      2.83%     85.93% |         609      2.14%     88.07% |         839      2.95%     91.02% |        2559      8.98%    100.00% (Unspecified)
board.cache_hierarchy.ruby_system.L1Cache_Controller.Fwd_GETS::total        28482                       (Unspecified)
board.cache_hierarchy.ruby_system.L1Cache_Controller.Data |           0      0.00%      0.00% |           0      0.00%      0.00% |        2401     11.41%     11.41% |        2290     10.88%     22.29% |        2421     11.50%     33.79% |        2264     10.76%     44.55% |        1929      9.17%     53.72% |        2064      9.81%     63.53% |        1968      9.35%     72.88% |        2239     10.64%     83.52% |         599      2.85%     86.36% |         702      3.34%     89.70% |         647      3.07%     92.77% |         569      2.70%     95.48% |         573      2.72%     98.20% |         379      1.80%    100.00% (Unspecified)
board.cache_hierarchy.ruby_system.L1Cache_Controller.Data::total        21045                       (Unspecified)
board.cache_hierarchy.ruby_system.L1Cache_Controller.Data_Exclusive |         310      7.47%      7.47% |         272      6.56%     14.03% |         261      6.29%     20.32% |         262      6.32%     26.64% |         261      6.29%     32.93% |         261      6.29%     39.22% |         261      6.29%     45.52% |         261      6.29%     51.81% |         261      6.29%     58.10% |         260      6.27%     64.37% |         261      6.29%     70.66% |         261      6.29%     76.95% |         261      6.29%     83.24% |         262      6.32%     89.56% |         260      6.27%     95.83% |         173      4.17%    100.00% (Unspecified)
board.cache_hierarchy.ruby_system.L1Cache_Controller.Data_Exclusive::total         4148                       (Unspecified)
board.cache_hierarchy.ruby_system.L1Cache_Controller.DataS_fromL1 |        1922      6.75%      6.75% |        1875      6.58%     13.33% |        2458      8.63%     21.96% |        2334      8.19%     30.16% |        2469      8.67%     38.82% |        2328      8.17%     47.00% |        1956      6.87%     53.87% |        2103      7.38%     61.25% |        1997      7.01%     68.26% |        2307      8.10%     76.36% |        2241      7.87%     84.23% |        1209      4.24%     88.47% |        1331      4.67%     93.15% |         711      2.50%     95.64% |         721      2.53%     98.17% |         520      1.83%    100.00% (Unspecified)
board.cache_hierarchy.ruby_system.L1Cache_Controller.DataS_fromL1::total        28482                       (Unspecified)
board.cache_hierarchy.ruby_system.L1Cache_Controller.Data_all_Acks |        2597      3.74%      3.74% |        2144      3.09%      6.84% |        3400      4.90%     11.74% |        3617      5.22%     16.95% |        3397      4.90%     21.85% |        3684      5.31%     27.16% |        4455      6.42%     33.59% |        4135      5.96%     39.55% |        4342      6.26%     45.81% |        3738      5.39%     51.20% |        3668      5.29%     56.49% |        5532      7.98%     64.47% |        5452      7.86%     72.33% |        6870      9.91%     82.23% |        6599      9.52%     91.75% |        5722      8.25%    100.00% (Unspecified)
board.cache_hierarchy.ruby_system.L1Cache_Controller.Data_all_Acks::total        69352                       (Unspecified)
board.cache_hierarchy.ruby_system.L1Cache_Controller.Ack |        1917      3.32%      3.32% |        1873      3.25%      6.57% |        4841      8.39%     14.96% |        4513      7.82%     22.78% |        4449      7.71%     30.50% |        4330      7.51%     38.00% |        3157      5.47%     43.47% |        3438      5.96%     49.43% |        3426      5.94%     55.37% |        4289      7.43%     62.81% |        9192     15.93%     78.74% |        3810      6.60%     85.34% |        4596      7.97%     93.31% |        1453      2.52%     95.83% |        1611      2.79%     98.62% |         795      1.38%    100.00% (Unspecified)
board.cache_hierarchy.ruby_system.L1Cache_Controller.Ack::total        57690                       (Unspecified)
board.cache_hierarchy.ruby_system.L1Cache_Controller.Ack_all |        1917      6.78%      6.78% |        1873      6.62%     13.40% |        2449      8.66%     22.06% |        2342      8.28%     30.34% |        2464      8.71%     39.05% |        2314      8.18%     47.23% |        1946      6.88%     54.11% |        2093      7.40%     61.51% |        1993      7.05%     68.55% |        2291      8.10%     76.65% |        2239      7.92%     84.57% |        1212      4.28%     88.85% |        1326      4.69%     93.54% |         698      2.47%     96.01% |         709      2.51%     98.52% |         420      1.48%    100.00% (Unspecified)
board.cache_hierarchy.ruby_system.L1Cache_Controller.Ack_all::total        28286                       (Unspecified)
board.cache_hierarchy.ruby_system.L1Cache_Controller.WB_Ack |         490    100.00%    100.00% |           0      0.00%    100.00% |           0      0.00%    100.00% |           0      0.00%    100.00% |           0      0.00%    100.00% |           0      0.00%    100.00% |           0      0.00%    100.00% |           0      0.00%    100.00% |           0      0.00%    100.00% |           0      0.00%    100.00% |           0      0.00%    100.00% |           0      0.00%    100.00% |           0      0.00%    100.00% |           0      0.00%    100.00% |           0      0.00%    100.00% |           0      0.00%    100.00% (Unspecified)
board.cache_hierarchy.ruby_system.L1Cache_Controller.WB_Ack::total          490                       (Unspecified)
board.cache_hierarchy.ruby_system.L1Cache_Controller.Load_Linked |          73    100.00%    100.00% |           0      0.00%    100.00% |           0      0.00%    100.00% |           0      0.00%    100.00% |           0      0.00%    100.00% |           0      0.00%    100.00% |           0      0.00%    100.00% |           0      0.00%    100.00% |           0      0.00%    100.00% |           0      0.00%    100.00% |           0      0.00%    100.00% |           0      0.00%    100.00% |           0      0.00%    100.00% |           0      0.00%    100.00% |           0      0.00%    100.00% |           0      0.00%    100.00% (Unspecified)
board.cache_hierarchy.ruby_system.L1Cache_Controller.Load_Linked::total           73                       (Unspecified)
board.cache_hierarchy.ruby_system.L1Cache_Controller.LLSC_Data_all_Acks |           2    100.00%    100.00% |           0      0.00%    100.00% |           0      0.00%    100.00% |           0      0.00%    100.00% |           0      0.00%    100.00% |           0      0.00%    100.00% |           0      0.00%    100.00% |           0      0.00%    100.00% |           0      0.00%    100.00% |           0      0.00%    100.00% |           0      0.00%    100.00% |           0      0.00%    100.00% |           0      0.00%    100.00% |           0      0.00%    100.00% |           0      0.00%    100.00% |           0      0.00%    100.00% (Unspecified)
board.cache_hierarchy.ruby_system.L1Cache_Controller.LLSC_Data_all_Acks::total            2                       (Unspecified)
board.cache_hierarchy.ruby_system.L1Cache_Controller.LLSC_Timeout |          73    100.00%    100.00% |           0      0.00%    100.00% |           0      0.00%    100.00% |           0      0.00%    100.00% |           0      0.00%    100.00% |           0      0.00%    100.00% |           0      0.00%    100.00% |           0      0.00%    100.00% |           0      0.00%    100.00% |           0      0.00%    100.00% |           0      0.00%    100.00% |           0      0.00%    100.00% |           0      0.00%    100.00% |           0      0.00%    100.00% |           0      0.00%    100.00% |           0      0.00%    100.00% (Unspecified)
board.cache_hierarchy.ruby_system.L1Cache_Controller.LLSC_Timeout::total           73                       (Unspecified)
board.cache_hierarchy.ruby_system.L1Cache_Controller.NP.Load |         300      6.39%      6.39% |         293      6.24%     12.63% |         293      6.24%     18.86% |         294      6.26%     25.12% |         293      6.24%     31.36% |         293      6.24%     37.60% |         293      6.24%     43.84% |         293      6.24%     50.07% |         293      6.24%     56.31% |         293      6.24%     62.55% |         293      6.24%     68.79% |         293      6.24%     75.03% |         293      6.24%     81.26% |         293      6.24%     87.50% |         293      6.24%     93.74% |         294      6.26%    100.00% (Unspecified)
board.cache_hierarchy.ruby_system.L1Cache_Controller.NP.Load::total         4697                       (Unspecified)
board.cache_hierarchy.ruby_system.L1Cache_Controller.NP.Ifetch |         205     12.07%     12.07% |          99      5.83%     17.89% |          99      5.83%     23.72% |         104      6.12%     29.84% |          99      5.83%     35.67% |          99      5.83%     41.49% |          99      5.83%     47.32% |          99      5.83%     53.15% |          99      5.83%     58.98% |          99      5.83%     64.80% |          99      5.83%     70.63% |          99      5.83%     76.46% |          99      5.83%     82.28% |          99      5.83%     88.11% |          99      5.83%     93.94% |         103      6.06%    100.00% (Unspecified)
board.cache_hierarchy.ruby_system.L1Cache_Controller.NP.Ifetch::total         1699                       (Unspecified)
board.cache_hierarchy.ruby_system.L1Cache_Controller.NP.Store |         401     48.78%     48.78% |          28      3.41%     52.19% |          28      3.41%     55.60% |          29      3.53%     59.12% |          28      3.41%     62.53% |          28      3.41%     65.94% |          28      3.41%     69.34% |          28      3.41%     72.75% |          28      3.41%     76.16% |          28      3.41%     79.56% |          28      3.41%     82.97% |          28      3.41%     86.37% |          28      3.41%     89.78% |          28      3.41%     93.19% |          28      3.41%     96.59% |          28      3.41%    100.00% (Unspecified)
board.cache_hierarchy.ruby_system.L1Cache_Controller.NP.Store::total          822                       (Unspecified)
board.cache_hierarchy.ruby_system.L1Cache_Controller.NP.Inv |          50    100.00%    100.00% |           0      0.00%    100.00% |           0      0.00%    100.00% |           0      0.00%    100.00% |           0      0.00%    100.00% |           0      0.00%    100.00% |           0      0.00%    100.00% |           0      0.00%    100.00% |           0      0.00%    100.00% |           0      0.00%    100.00% |           0      0.00%    100.00% |           0      0.00%    100.00% |           0      0.00%    100.00% |           0      0.00%    100.00% |           0      0.00%    100.00% |           0      0.00%    100.00% (Unspecified)
board.cache_hierarchy.ruby_system.L1Cache_Controller.NP.Inv::total           50                       (Unspecified)
board.cache_hierarchy.ruby_system.L1Cache_Controller.NP.Load_Linked |           2    100.00%    100.00% |           0      0.00%    100.00% |           0      0.00%    100.00% |           0      0.00%    100.00% |           0      0.00%    100.00% |           0      0.00%    100.00% |           0      0.00%    100.00% |           0      0.00%    100.00% |           0      0.00%    100.00% |           0      0.00%    100.00% |           0      0.00%    100.00% |           0      0.00%    100.00% |           0      0.00%    100.00% |           0      0.00%    100.00% |           0      0.00%    100.00% |           0      0.00%    100.00% (Unspecified)
board.cache_hierarchy.ruby_system.L1Cache_Controller.NP.Load_Linked::total            2                       (Unspecified)
board.cache_hierarchy.ruby_system.L1Cache_Controller.I.Load |        1936      3.35%      3.35% |        1864      3.23%      6.58% |        4039      6.99%     13.57% |        4040      7.00%     20.57% |        4061      7.03%     27.60% |        4057      7.02%     34.62% |        4088      7.08%     41.70% |        4062      7.03%     48.74% |        4063      7.04%     55.77% |        4066      7.04%     62.81% |        3879      6.72%     69.53% |        3686      6.38%     75.91% |        3841      6.65%     82.56% |        4012      6.95%     89.51% |        3759      6.51%     96.02% |        2301      3.98%    100.00% (Unspecified)
board.cache_hierarchy.ruby_system.L1Cache_Controller.I.Load::total        57754                       (Unspecified)
board.cache_hierarchy.ruby_system.L1Cache_Controller.I.Ifetch |          40     23.12%     23.12% |           9      5.20%     28.32% |           9      5.20%     33.53% |           9      5.20%     38.73% |           9      5.20%     43.93% |           9      5.20%     49.13% |           9      5.20%     54.34% |           9      5.20%     59.54% |           9      5.20%     64.74% |           9      5.20%     69.94% |           9      5.20%     75.14% |           9      5.20%     80.35% |           9      5.20%     85.55% |           9      5.20%     90.75% |           9      5.20%     95.95% |           7      4.05%    100.00% (Unspecified)
board.cache_hierarchy.ruby_system.L1Cache_Controller.I.Ifetch::total          173                       (Unspecified)
board.cache_hierarchy.ruby_system.L1Cache_Controller.I.Store |         439      0.84%      0.84% |         497      0.95%      1.78% |        4023      7.66%      9.44% |        3991      7.60%     17.03% |        4031      7.67%     24.71% |        4029      7.67%     32.38% |        4050      7.71%     40.08% |        4041      7.69%     47.78% |        4044      7.70%     55.47% |        4030      7.67%     63.14% |        2191      4.17%     67.31% |        3164      6.02%     73.33% |        3033      5.77%     79.11% |        3397      6.47%     85.57% |        3548      6.75%     92.33% |        4032      7.67%    100.00% (Unspecified)
board.cache_hierarchy.ruby_system.L1Cache_Controller.I.Store::total        52540                       (Unspecified)
board.cache_hierarchy.ruby_system.L1Cache_Controller.I.L1_Replacement |         203    100.00%    100.00% |           0      0.00%    100.00% |           0      0.00%    100.00% |           0      0.00%    100.00% |           0      0.00%    100.00% |           0      0.00%    100.00% |           0      0.00%    100.00% |           0      0.00%    100.00% |           0      0.00%    100.00% |           0      0.00%    100.00% |           0      0.00%    100.00% |           0      0.00%    100.00% |           0      0.00%    100.00% |           0      0.00%    100.00% |           0      0.00%    100.00% |           0      0.00%    100.00% (Unspecified)
board.cache_hierarchy.ruby_system.L1Cache_Controller.I.L1_Replacement::total          203                       (Unspecified)
board.cache_hierarchy.ruby_system.L1Cache_Controller.S.Load |       10080      9.18%      9.18% |       11298     10.29%     19.47% |        5659      5.15%     24.62% |        5556      5.06%     29.68% |        5502      5.01%     34.69% |        5423      4.94%     39.63% |        5328      4.85%     44.48% |        5237      4.77%     49.25% |        5242      4.77%     54.02% |        5088      4.63%     58.66% |        7300      6.65%     65.31% |        7379      6.72%     72.02% |        7116      6.48%     78.51% |        6862      6.25%     84.75% |        7023      6.40%     91.15% |        9719      8.85%    100.00% (Unspecified)
board.cache_hierarchy.ruby_system.L1Cache_Controller.S.Load::total       109812                       (Unspecified)
board.cache_hierarchy.ruby_system.L1Cache_Controller.S.Ifetch |      288866      8.77%      8.77% |      306274      9.30%     18.08% |      180218      5.47%     23.55% |      177583      5.39%     28.95% |      175697      5.34%     34.28% |      172925      5.25%     39.54% |      170846      5.19%     44.73% |      166985      5.07%     49.80% |      167183      5.08%     54.88% |      162200      4.93%     59.80% |      229019      6.96%     66.76% |      225316      6.84%     73.60% |      221712      6.73%     80.34% |      218934      6.65%     86.99% |      215926      6.56%     93.55% |      212409      6.45%    100.00% (Unspecified)
board.cache_hierarchy.ruby_system.L1Cache_Controller.S.Ifetch::total      3292093                       (Unspecified)
board.cache_hierarchy.ruby_system.L1Cache_Controller.S.Store |        3425     27.22%     27.22% |        3374     26.81%     54.03% |          77      0.61%     54.65% |          88      0.70%     55.34% |          70      0.56%     55.90% |          72      0.57%     56.47% |          51      0.41%     56.88% |          60      0.48%     57.36% |          57      0.45%     57.81% |          71      0.56%     58.37% |        1910     15.18%     73.55% |         935      7.43%     80.98% |        1067      8.48%     89.46% |         703      5.59%     95.05% |         553      4.39%     99.44% |          70      0.56%    100.00% (Unspecified)
board.cache_hierarchy.ruby_system.L1Cache_Controller.S.Store::total        12583                       (Unspecified)
board.cache_hierarchy.ruby_system.L1Cache_Controller.S.Inv |         624      0.97%      0.97% |         493      0.76%      1.73% |        4723      7.31%      9.04% |        5013      7.76%     16.81% |        4974      7.70%     24.51% |        4971      7.70%     32.21% |        4926      7.63%     39.84% |        5183      8.03%     47.86% |        5464      8.46%     56.32% |        5808      8.99%     65.32% |        2659      4.12%     69.44% |        3742      5.79%     75.23% |        3496      5.41%     80.64% |        3825      5.92%     86.57% |        3940      6.10%     92.67% |        4734      7.33%    100.00% (Unspecified)
board.cache_hierarchy.ruby_system.L1Cache_Controller.S.Inv::total        64575                       (Unspecified)
board.cache_hierarchy.ruby_system.L1Cache_Controller.S.L1_Replacement |         125    100.00%    100.00% |           0      0.00%    100.00% |           0      0.00%    100.00% |           0      0.00%    100.00% |           0      0.00%    100.00% |           0      0.00%    100.00% |           0      0.00%    100.00% |           0      0.00%    100.00% |           0      0.00%    100.00% |           0      0.00%    100.00% |           0      0.00%    100.00% |           0      0.00%    100.00% |           0      0.00%    100.00% |           0      0.00%    100.00% |           0      0.00%    100.00% |           0      0.00%    100.00% (Unspecified)
board.cache_hierarchy.ruby_system.L1Cache_Controller.S.L1_Replacement::total          125                       (Unspecified)
board.cache_hierarchy.ruby_system.L1Cache_Controller.E.Load |        4849      4.30%      4.30% |        3862      3.42%      7.72% |        8584      7.60%     15.32% |        3837      3.40%     18.72% |        8612      7.63%     26.35% |        4664      4.13%     30.48% |        6529      5.78%     36.26% |       10661      9.44%     45.71% |        6406      5.67%     51.38% |       10664      9.45%     60.83% |        4958      4.39%     65.22% |       10281      9.11%     74.33% |        4881      4.32%     78.65% |       10263      9.09%     87.74% |        4920      4.36%     92.10% |        8919      7.90%    100.00% (Unspecified)
board.cache_hierarchy.ruby_system.L1Cache_Controller.E.Load::total       112890                       (Unspecified)
board.cache_hierarchy.ruby_system.L1Cache_Controller.E.Store |          22     43.14%     43.14% |           2      3.92%     47.06% |           1      1.96%     49.02% |           1      1.96%     50.98% |           2      3.92%     54.90% |           2      3.92%     58.82% |           2      3.92%     62.75% |           2      3.92%     66.67% |           2      3.92%     70.59% |           2      3.92%     74.51% |           2      3.92%     78.43% |           2      3.92%     82.35% |           2      3.92%     86.27% |           3      5.88%     92.16% |           2      3.92%     96.08% |           2      3.92%    100.00% (Unspecified)
board.cache_hierarchy.ruby_system.L1Cache_Controller.E.Store::total           51                       (Unspecified)
board.cache_hierarchy.ruby_system.L1Cache_Controller.E.Inv |         214     41.96%     41.96% |         205     40.20%     82.16% |           0      0.00%     82.16% |           0      0.00%     82.16% |           0      0.00%     82.16% |           1      0.20%     82.35% |           0      0.00%     82.35% |           0      0.00%     82.35% |           0      0.00%     82.35% |           0      0.00%     82.35% |           6      1.18%     83.53% |           9      1.76%     85.29% |           6      1.18%     86.47% |          21      4.12%     90.59% |          38      7.45%     98.04% |          10      1.96%    100.00% (Unspecified)
board.cache_hierarchy.ruby_system.L1Cache_Controller.E.Inv::total          510                       (Unspecified)
board.cache_hierarchy.ruby_system.L1Cache_Controller.E.L1_Replacement |           8    100.00%    100.00% |           0      0.00%    100.00% |           0      0.00%    100.00% |           0      0.00%    100.00% |           0      0.00%    100.00% |           0      0.00%    100.00% |           0      0.00%    100.00% |           0      0.00%    100.00% |           0      0.00%    100.00% |           0      0.00%    100.00% |           0      0.00%    100.00% |           0      0.00%    100.00% |           0      0.00%    100.00% |           0      0.00%    100.00% |           0      0.00%    100.00% |           0      0.00%    100.00% (Unspecified)
board.cache_hierarchy.ruby_system.L1Cache_Controller.E.L1_Replacement::total            8                       (Unspecified)
board.cache_hierarchy.ruby_system.L1Cache_Controller.E.Fwd_GETS |           8     23.53%     23.53% |          10     29.41%     52.94% |           2      5.88%     58.82% |           1      2.94%     61.76% |           1      2.94%     64.71% |           1      2.94%     67.65% |           1      2.94%     70.59% |           1      2.94%     73.53% |           1      2.94%     76.47% |           1      2.94%     79.41% |           1      2.94%     82.35% |           1      2.94%     85.29% |           1      2.94%     88.24% |           1      2.94%     91.18% |           1      2.94%     94.12% |           2      5.88%    100.00% (Unspecified)
board.cache_hierarchy.ruby_system.L1Cache_Controller.E.Fwd_GETS::total           34                       (Unspecified)
board.cache_hierarchy.ruby_system.L1Cache_Controller.E.Load_Linked |           1    100.00%    100.00% |           0      0.00%    100.00% |           0      0.00%    100.00% |           0      0.00%    100.00% |           0      0.00%    100.00% |           0      0.00%    100.00% |           0      0.00%    100.00% |           0      0.00%    100.00% |           0      0.00%    100.00% |           0      0.00%    100.00% |           0      0.00%    100.00% |           0      0.00%    100.00% |           0      0.00%    100.00% |           0      0.00%    100.00% |           0      0.00%    100.00% |           0      0.00%    100.00% (Unspecified)
board.cache_hierarchy.ruby_system.L1Cache_Controller.E.Load_Linked::total            1                       (Unspecified)
board.cache_hierarchy.ruby_system.L1Cache_Controller.M.Load |       60870      8.84%      8.84% |       64883      9.42%     18.27% |       36887      5.36%     23.62% |       41179      5.98%     29.61% |       36035      5.23%     34.84% |       39478      5.73%     40.57% |       37236      5.41%     45.98% |       32402      4.71%     50.69% |       36693      5.33%     56.02% |       31529      4.58%     60.60% |       49383      7.17%     67.77% |       43390      6.30%     74.08% |       48134      6.99%     81.07% |       42245      6.14%     87.20% |       47041      6.83%     94.04% |       41053      5.96%    100.00% (Unspecified)
board.cache_hierarchy.ruby_system.L1Cache_Controller.M.Load::total       688438                       (Unspecified)
board.cache_hierarchy.ruby_system.L1Cache_Controller.M.Store |       16669     11.62%     11.62% |       15091     10.52%     22.14% |        7223      5.04%     27.18% |        7086      4.94%     32.12% |        6947      4.84%     36.96% |        6779      4.73%     41.69% |        6653      4.64%     46.33% |        6419      4.48%     50.81% |        6431      4.48%     55.29% |        6129      4.27%     59.56% |       10179      7.10%     66.66% |        9956      6.94%     73.60% |        9737      6.79%     80.39% |        9568      6.67%     87.06% |        9385      6.54%     93.61% |        9171      6.39%    100.00% (Unspecified)
board.cache_hierarchy.ruby_system.L1Cache_Controller.M.Store::total       143423                       (Unspecified)
board.cache_hierarchy.ruby_system.L1Cache_Controller.M.Inv |         104     22.56%     22.56% |          25      5.42%     27.98% |          22      4.77%     32.75% |          22      4.77%     37.53% |          18      3.90%     41.43% |          26      5.64%     47.07% |          25      5.42%     52.49% |          22      4.77%     57.27% |          24      5.21%     62.47% |          22      4.77%     67.25% |          26      5.64%     72.89% |          26      5.64%     78.52% |          23      4.99%     83.51% |          25      5.42%     88.94% |          24      5.21%     94.14% |          27      5.86%    100.00% (Unspecified)
board.cache_hierarchy.ruby_system.L1Cache_Controller.M.Inv::total          461                       (Unspecified)
board.cache_hierarchy.ruby_system.L1Cache_Controller.M.L1_Replacement |         482    100.00%    100.00% |           0      0.00%    100.00% |           0      0.00%    100.00% |           0      0.00%    100.00% |           0      0.00%    100.00% |           0      0.00%    100.00% |           0      0.00%    100.00% |           0      0.00%    100.00% |           0      0.00%    100.00% |           0      0.00%    100.00% |           0      0.00%    100.00% |           0      0.00%    100.00% |           0      0.00%    100.00% |           0      0.00%    100.00% |           0      0.00%    100.00% |           0      0.00%    100.00% (Unspecified)
board.cache_hierarchy.ruby_system.L1Cache_Controller.M.L1_Replacement::total          482                       (Unspecified)
board.cache_hierarchy.ruby_system.L1Cache_Controller.M.Fwd_GETX |        2076      5.62%      5.62% |        1951      5.28%     10.90% |        2328      6.30%     17.20% |        2034      5.51%     22.71% |        2133      5.77%     28.48% |        2049      5.55%     34.03% |        1953      5.29%     39.32% |        1727      4.67%     43.99% |        1439      3.90%     47.89% |        1245      3.37%     51.26% |        3317      8.98%     60.23% |        3099      8.39%     68.62% |        3295      8.92%     77.54% |        3492      9.45%     87.00% |        3263      8.83%     95.83% |        1541      4.17%    100.00% (Unspecified)
board.cache_hierarchy.ruby_system.L1Cache_Controller.M.Fwd_GETX::total        36942                       (Unspecified)
board.cache_hierarchy.ruby_system.L1Cache_Controller.M.Fwd_GETS |        2062      7.25%      7.25% |        1919      6.75%     13.99% |        1772      6.23%     20.22% |        2046      7.19%     27.41% |        1968      6.92%     34.33% |        2051      7.21%     41.54% |        2148      7.55%     49.09% |        2373      8.34%     57.43% |        2662      9.36%     66.79% |        2856     10.04%     76.83% |         784      2.76%     79.59% |         999      3.51%     83.10% |         805      2.83%     85.93% |         608      2.14%     88.07% |         838      2.95%     91.01% |        2557      8.99%    100.00% (Unspecified)
board.cache_hierarchy.ruby_system.L1Cache_Controller.M.Fwd_GETS::total        28448                       (Unspecified)
board.cache_hierarchy.ruby_system.L1Cache_Controller.M.Load_Linked |          70    100.00%    100.00% |           0      0.00%    100.00% |           0      0.00%    100.00% |           0      0.00%    100.00% |           0      0.00%    100.00% |           0      0.00%    100.00% |           0      0.00%    100.00% |           0      0.00%    100.00% |           0      0.00%    100.00% |           0      0.00%    100.00% |           0      0.00%    100.00% |           0      0.00%    100.00% |           0      0.00%    100.00% |           0      0.00%    100.00% |           0      0.00%    100.00% |           0      0.00%    100.00% (Unspecified)
board.cache_hierarchy.ruby_system.L1Cache_Controller.M.Load_Linked::total           70                       (Unspecified)
board.cache_hierarchy.ruby_system.L1Cache_Controller.IS.Inv |           0      0.00%      0.00% |           0      0.00%      0.00% |        1101     10.56%     10.56% |        1074     10.30%     20.86% |        1073     10.29%     31.15% |        1152     11.05%     42.20% |        1348     12.93%     55.13% |        1280     12.28%     67.41% |        1292     12.39%     79.80% |        1131     10.85%     90.65% |         182      1.75%     92.39% |          98      0.94%     93.33% |         173      1.66%     94.99% |         180      1.73%     96.72% |         194      1.86%     98.58% |         148      1.42%    100.00% (Unspecified)
board.cache_hierarchy.ruby_system.L1Cache_Controller.IS.Inv::total        10426                       (Unspecified)
board.cache_hierarchy.ruby_system.L1Cache_Controller.IS.Data_Exclusive |         310      7.47%      7.47% |         272      6.56%     14.03% |         261      6.29%     20.32% |         262      6.32%     26.64% |         261      6.29%     32.93% |         261      6.29%     39.22% |         261      6.29%     45.52% |         261      6.29%     51.81% |         261      6.29%     58.10% |         260      6.27%     64.37% |         261      6.29%     70.66% |         261      6.29%     76.95% |         261      6.29%     83.24% |         262      6.32%     89.56% |         260      6.27%     95.83% |         173      4.17%    100.00% (Unspecified)
board.cache_hierarchy.ruby_system.L1Cache_Controller.IS.Data_Exclusive::total         4148                       (Unspecified)
board.cache_hierarchy.ruby_system.L1Cache_Controller.IS.DataS_fromL1 |        1922      6.75%      6.75% |        1875      6.58%     13.33% |        2458      8.63%     21.96% |        2334      8.19%     30.16% |        2469      8.67%     38.82% |        2328      8.17%     47.00% |        1956      6.87%     53.87% |        2103      7.38%     61.25% |        1997      7.01%     68.26% |        2307      8.10%     76.36% |        2241      7.87%     84.23% |        1209      4.24%     88.47% |        1331      4.67%     93.15% |         711      2.50%     95.64% |         721      2.53%     98.17% |         520      1.83%    100.00% (Unspecified)
board.cache_hierarchy.ruby_system.L1Cache_Controller.IS.DataS_fromL1::total        28482                       (Unspecified)
board.cache_hierarchy.ruby_system.L1Cache_Controller.IS.Data_all_Acks |         249      1.17%      1.17% |         118      0.55%      1.73% |         620      2.92%      4.64% |         777      3.65%      8.29% |         659      3.10%     11.39% |         717      3.37%     14.76% |         924      4.34%     19.11% |         819      3.85%     22.96% |         914      4.30%     27.26% |         769      3.62%     30.87% |        1596      7.50%     38.38% |        2519     11.84%     50.22% |        2477     11.65%     61.87% |        3260     15.33%     77.20% |        2985     14.04%     91.24% |        1864      8.76%    100.00% (Unspecified)
board.cache_hierarchy.ruby_system.L1Cache_Controller.IS.Data_all_Acks::total        21267                       (Unspecified)
board.cache_hierarchy.ruby_system.L1Cache_Controller.IM.Data |           0      0.00%      0.00% |           0      0.00%      0.00% |        2401     11.41%     11.41% |        2290     10.88%     22.29% |        2421     11.50%     33.79% |        2264     10.76%     44.55% |        1929      9.17%     53.72% |        2064      9.81%     63.53% |        1968      9.35%     72.88% |        2239     10.64%     83.52% |         599      2.85%     86.36% |         702      3.34%     89.70% |         647      3.07%     92.77% |         569      2.70%     95.48% |         573      2.72%     98.20% |         379      1.80%    100.00% (Unspecified)
board.cache_hierarchy.ruby_system.L1Cache_Controller.IM.Data::total        21045                       (Unspecified)
board.cache_hierarchy.ruby_system.L1Cache_Controller.IM.Data_all_Acks |        2348      6.23%      6.23% |        2026      5.38%     11.61% |        1679      4.46%     16.07% |        1766      4.69%     20.76% |        1665      4.42%     25.18% |        1815      4.82%     30.00% |        2183      5.80%     35.80% |        2036      5.41%     41.21% |        2136      5.67%     46.88% |        1838      4.88%     51.76% |        1890      5.02%     56.78% |        2915      7.74%     64.52% |        2802      7.44%     71.96% |        3430      9.11%     81.07% |        3420      9.08%     90.15% |        3710      9.85%    100.00% (Unspecified)
board.cache_hierarchy.ruby_system.L1Cache_Controller.IM.Data_all_Acks::total        37659                       (Unspecified)
board.cache_hierarchy.ruby_system.L1Cache_Controller.IM.LLSC_Data_all_Acks |           2    100.00%    100.00% |           0      0.00%    100.00% |           0      0.00%    100.00% |           0      0.00%    100.00% |           0      0.00%    100.00% |           0      0.00%    100.00% |           0      0.00%    100.00% |           0      0.00%    100.00% |           0      0.00%    100.00% |           0      0.00%    100.00% |           0      0.00%    100.00% |           0      0.00%    100.00% |           0      0.00%    100.00% |           0      0.00%    100.00% |           0      0.00%    100.00% |           0      0.00%    100.00% (Unspecified)
board.cache_hierarchy.ruby_system.L1Cache_Controller.IM.LLSC_Data_all_Acks::total            2                       (Unspecified)
board.cache_hierarchy.ruby_system.L1Cache_Controller.SM.Inv |        1508     28.23%     28.23% |        1501     28.10%     56.33% |          29      0.54%     56.87% |          36      0.67%     57.54% |          27      0.51%     58.05% |          22      0.41%     58.46% |          34      0.64%     59.10% |          31      0.58%     59.68% |          32      0.60%     60.28% |          19      0.36%     60.63% |         270      5.05%     65.69% |         425      7.96%     73.64% |         388      7.26%     80.91% |         574     10.75%     91.65% |         417      7.81%     99.46% |          29      0.54%    100.00% (Unspecified)
board.cache_hierarchy.ruby_system.L1Cache_Controller.SM.Inv::total         5342                       (Unspecified)
board.cache_hierarchy.ruby_system.L1Cache_Controller.SM.Ack |        1917      3.32%      3.32% |        1873      3.25%      6.57% |        4841      8.39%     14.96% |        4513      7.82%     22.78% |        4449      7.71%     30.50% |        4330      7.51%     38.00% |        3157      5.47%     43.47% |        3438      5.96%     49.43% |        3426      5.94%     55.37% |        4289      7.43%     62.81% |        9192     15.93%     78.74% |        3810      6.60%     85.34% |        4596      7.97%     93.31% |        1453      2.52%     95.83% |        1611      2.79%     98.62% |         795      1.38%    100.00% (Unspecified)
board.cache_hierarchy.ruby_system.L1Cache_Controller.SM.Ack::total        57690                       (Unspecified)
board.cache_hierarchy.ruby_system.L1Cache_Controller.SM.Ack_all |        1917      6.78%      6.78% |        1873      6.62%     13.40% |        2449      8.66%     22.06% |        2342      8.28%     30.34% |        2464      8.71%     39.05% |        2314      8.18%     47.23% |        1946      6.88%     54.11% |        2093      7.40%     61.51% |        1993      7.05%     68.55% |        2291      8.10%     76.65% |        2239      7.92%     84.57% |        1212      4.28%     88.85% |        1326      4.69%     93.54% |         698      2.47%     96.01% |         709      2.51%     98.52% |         420      1.48%    100.00% (Unspecified)
board.cache_hierarchy.ruby_system.L1Cache_Controller.SM.Ack_all::total        28286                       (Unspecified)
board.cache_hierarchy.ruby_system.L1Cache_Controller.IS_I.Data_all_Acks |           0      0.00%      0.00% |           0      0.00%      0.00% |        1101     10.56%     10.56% |        1074     10.30%     20.86% |        1073     10.29%     31.15% |        1152     11.05%     42.20% |        1348     12.93%     55.13% |        1280     12.28%     67.41% |        1292     12.39%     79.80% |        1131     10.85%     90.65% |         182      1.75%     92.39% |          98      0.94%     93.33% |         173      1.66%     94.99% |         180      1.73%     96.72% |         194      1.86%     98.58% |         148      1.42%    100.00% (Unspecified)
board.cache_hierarchy.ruby_system.L1Cache_Controller.IS_I.Data_all_Acks::total        10426                       (Unspecified)
board.cache_hierarchy.ruby_system.L1Cache_Controller.M_I.WB_Ack |         490    100.00%    100.00% |           0      0.00%    100.00% |           0      0.00%    100.00% |           0      0.00%    100.00% |           0      0.00%    100.00% |           0      0.00%    100.00% |           0      0.00%    100.00% |           0      0.00%    100.00% |           0      0.00%    100.00% |           0      0.00%    100.00% |           0      0.00%    100.00% |           0      0.00%    100.00% |           0      0.00%    100.00% |           0      0.00%    100.00% |           0      0.00%    100.00% |           0      0.00%    100.00% (Unspecified)
board.cache_hierarchy.ruby_system.L1Cache_Controller.M_I.WB_Ack::total          490                       (Unspecified)
board.cache_hierarchy.ruby_system.L1Cache_Controller.LLSC_E.Store |           2    100.00%    100.00% |           0      0.00%    100.00% |           0      0.00%    100.00% |           0      0.00%    100.00% |           0      0.00%    100.00% |           0      0.00%    100.00% |           0      0.00%    100.00% |           0      0.00%    100.00% |           0      0.00%    100.00% |           0      0.00%    100.00% |           0      0.00%    100.00% |           0      0.00%    100.00% |           0      0.00%    100.00% |           0      0.00%    100.00% |           0      0.00%    100.00% |           0      0.00%    100.00% (Unspecified)
board.cache_hierarchy.ruby_system.L1Cache_Controller.LLSC_E.Store::total            2                       (Unspecified)
board.cache_hierarchy.ruby_system.L1Cache_Controller.LLSC_E.LLSC_Timeout |           1    100.00%    100.00% |           0      0.00%    100.00% |           0      0.00%    100.00% |           0      0.00%    100.00% |           0      0.00%    100.00% |           0      0.00%    100.00% |           0      0.00%    100.00% |           0      0.00%    100.00% |           0      0.00%    100.00% |           0      0.00%    100.00% |           0      0.00%    100.00% |           0      0.00%    100.00% |           0      0.00%    100.00% |           0      0.00%    100.00% |           0      0.00%    100.00% |           0      0.00%    100.00% (Unspecified)
board.cache_hierarchy.ruby_system.L1Cache_Controller.LLSC_E.LLSC_Timeout::total            1                       (Unspecified)
board.cache_hierarchy.ruby_system.L1Cache_Controller.LLSC_M.Store |          70    100.00%    100.00% |           0      0.00%    100.00% |           0      0.00%    100.00% |           0      0.00%    100.00% |           0      0.00%    100.00% |           0      0.00%    100.00% |           0      0.00%    100.00% |           0      0.00%    100.00% |           0      0.00%    100.00% |           0      0.00%    100.00% |           0      0.00%    100.00% |           0      0.00%    100.00% |           0      0.00%    100.00% |           0      0.00%    100.00% |           0      0.00%    100.00% |           0      0.00%    100.00% (Unspecified)
board.cache_hierarchy.ruby_system.L1Cache_Controller.LLSC_M.Store::total           70                       (Unspecified)
board.cache_hierarchy.ruby_system.L1Cache_Controller.LLSC_M.LLSC_Timeout |          72    100.00%    100.00% |           0      0.00%    100.00% |           0      0.00%    100.00% |           0      0.00%    100.00% |           0      0.00%    100.00% |           0      0.00%    100.00% |           0      0.00%    100.00% |           0      0.00%    100.00% |           0      0.00%    100.00% |           0      0.00%    100.00% |           0      0.00%    100.00% |           0      0.00%    100.00% |           0      0.00%    100.00% |           0      0.00%    100.00% |           0      0.00%    100.00% |           0      0.00%    100.00% (Unspecified)
board.cache_hierarchy.ruby_system.L1Cache_Controller.LLSC_M.LLSC_Timeout::total           72                       (Unspecified)
board.cache_hierarchy.ruby_system.L2Cache_Controller.L1_GET_INSTR         1879      0.00%      0.00% (Unspecified)
board.cache_hierarchy.ruby_system.L2Cache_Controller.L1_GETS       167767      0.00%      0.00% (Unspecified)
board.cache_hierarchy.ruby_system.L2Cache_Controller.L1_GETX       195364      0.00%      0.00% (Unspecified)
board.cache_hierarchy.ruby_system.L2Cache_Controller.L1_UPGRADE        12570      0.00%      0.00% (Unspecified)
board.cache_hierarchy.ruby_system.L2Cache_Controller.L1_PUTX          490      0.00%      0.00% (Unspecified)
board.cache_hierarchy.ruby_system.L2Cache_Controller.L2_Replacement         1462      0.00%      0.00% (Unspecified)
board.cache_hierarchy.ruby_system.L2Cache_Controller.L2_Replacement_clean         1460      0.00%      0.00% (Unspecified)
board.cache_hierarchy.ruby_system.L2Cache_Controller.Mem_Data         2921      0.00%      0.00% (Unspecified)
board.cache_hierarchy.ruby_system.L2Cache_Controller.Mem_Ack         2921      0.00%      0.00% (Unspecified)
board.cache_hierarchy.ruby_system.L2Cache_Controller.WB_Data        28909      0.00%      0.00% (Unspecified)
board.cache_hierarchy.ruby_system.L2Cache_Controller.WB_Data_clean           34      0.00%      0.00% (Unspecified)
board.cache_hierarchy.ruby_system.L2Cache_Controller.Ack         1322      0.00%      0.00% (Unspecified)
board.cache_hierarchy.ruby_system.L2Cache_Controller.Ack_all          846      0.00%      0.00% (Unspecified)
board.cache_hierarchy.ruby_system.L2Cache_Controller.Unblock        28482      0.00%      0.00% (Unspecified)
board.cache_hierarchy.ruby_system.L2Cache_Controller.Exclusive_Unblock        70095      0.00%      0.00% (Unspecified)
board.cache_hierarchy.ruby_system.L2Cache_Controller.NP.L1_GET_INSTR          318      0.00%      0.00% (Unspecified)
board.cache_hierarchy.ruby_system.L2Cache_Controller.NP.L1_GETS         1888      0.00%      0.00% (Unspecified)
board.cache_hierarchy.ruby_system.L2Cache_Controller.NP.L1_GETX          715      0.00%      0.00% (Unspecified)
board.cache_hierarchy.ruby_system.L2Cache_Controller.SS.L1_GET_INSTR         1374      0.00%      0.00% (Unspecified)
board.cache_hierarchy.ruby_system.L2Cache_Controller.SS.L1_GETS        29781      0.00%      0.00% (Unspecified)
board.cache_hierarchy.ruby_system.L2Cache_Controller.SS.L1_GETX        21045      0.00%      0.00% (Unspecified)
board.cache_hierarchy.ruby_system.L2Cache_Controller.SS.L1_UPGRADE         7241      0.00%      0.00% (Unspecified)
board.cache_hierarchy.ruby_system.L2Cache_Controller.SS.L2_Replacement           51      0.00%      0.00% (Unspecified)
board.cache_hierarchy.ruby_system.L2Cache_Controller.SS.L2_Replacement_clean          285      0.00%      0.00% (Unspecified)
board.cache_hierarchy.ruby_system.L2Cache_Controller.M.L1_GETS         2265      0.00%      0.00% (Unspecified)
board.cache_hierarchy.ruby_system.L2Cache_Controller.M.L1_GETX            4      0.00%      0.00% (Unspecified)
board.cache_hierarchy.ruby_system.L2Cache_Controller.M.L2_Replacement         1172      0.00%      0.00% (Unspecified)
board.cache_hierarchy.ruby_system.L2Cache_Controller.M.L2_Replacement_clean          442      0.00%      0.00% (Unspecified)
board.cache_hierarchy.ruby_system.L2Cache_Controller.MT.L1_GETS        28482      0.00%      0.00% (Unspecified)
board.cache_hierarchy.ruby_system.L2Cache_Controller.MT.L1_GETX        36942      0.00%      0.00% (Unspecified)
board.cache_hierarchy.ruby_system.L2Cache_Controller.MT.L1_PUTX          490      0.00%      0.00% (Unspecified)
board.cache_hierarchy.ruby_system.L2Cache_Controller.MT.L2_Replacement          239      0.00%      0.00% (Unspecified)
board.cache_hierarchy.ruby_system.L2Cache_Controller.MT.L2_Replacement_clean          732      0.00%      0.00% (Unspecified)
board.cache_hierarchy.ruby_system.L2Cache_Controller.M_I.L1_GET_INSTR            7      0.00%      0.00% (Unspecified)
board.cache_hierarchy.ruby_system.L2Cache_Controller.M_I.L1_GETS           33      0.00%      0.00% (Unspecified)
board.cache_hierarchy.ruby_system.L2Cache_Controller.M_I.L1_GETX            1      0.00%      0.00% (Unspecified)
board.cache_hierarchy.ruby_system.L2Cache_Controller.M_I.Mem_Ack         2921      0.00%      0.00% (Unspecified)
board.cache_hierarchy.ruby_system.L2Cache_Controller.MT_I.WB_Data           27      0.00%      0.00% (Unspecified)
board.cache_hierarchy.ruby_system.L2Cache_Controller.MT_I.Ack_all          212      0.00%      0.00% (Unspecified)
board.cache_hierarchy.ruby_system.L2Cache_Controller.MCT_I.WB_Data          434      0.00%      0.00% (Unspecified)
board.cache_hierarchy.ruby_system.L2Cache_Controller.MCT_I.Ack_all          298      0.00%      0.00% (Unspecified)
board.cache_hierarchy.ruby_system.L2Cache_Controller.I_I.Ack         1202      0.00%      0.00% (Unspecified)
board.cache_hierarchy.ruby_system.L2Cache_Controller.I_I.Ack_all          285      0.00%      0.00% (Unspecified)
board.cache_hierarchy.ruby_system.L2Cache_Controller.S_I.Ack          120      0.00%      0.00% (Unspecified)
board.cache_hierarchy.ruby_system.L2Cache_Controller.S_I.Ack_all           51      0.00%      0.00% (Unspecified)
board.cache_hierarchy.ruby_system.L2Cache_Controller.ISS.L1_GETS            5      0.00%      0.00% (Unspecified)
board.cache_hierarchy.ruby_system.L2Cache_Controller.ISS.L2_Replacement_clean            1      0.00%      0.00% (Unspecified)
board.cache_hierarchy.ruby_system.L2Cache_Controller.ISS.Mem_Data         1883      0.00%      0.00% (Unspecified)
board.cache_hierarchy.ruby_system.L2Cache_Controller.IS.L1_GET_INSTR          180      0.00%      0.00% (Unspecified)
board.cache_hierarchy.ruby_system.L2Cache_Controller.IS.L1_GETS           30      0.00%      0.00% (Unspecified)
board.cache_hierarchy.ruby_system.L2Cache_Controller.IS.Mem_Data          323      0.00%      0.00% (Unspecified)
board.cache_hierarchy.ruby_system.L2Cache_Controller.IM.L1_GETX           14      0.00%      0.00% (Unspecified)
board.cache_hierarchy.ruby_system.L2Cache_Controller.IM.Mem_Data          715      0.00%      0.00% (Unspecified)
board.cache_hierarchy.ruby_system.L2Cache_Controller.SS_MB.L1_GETS        29901      0.00%      0.00% (Unspecified)
board.cache_hierarchy.ruby_system.L2Cache_Controller.SS_MB.L1_GETX        41529      0.00%      0.00% (Unspecified)
board.cache_hierarchy.ruby_system.L2Cache_Controller.SS_MB.L1_UPGRADE         5329      0.00%      0.00% (Unspecified)
board.cache_hierarchy.ruby_system.L2Cache_Controller.SS_MB.Exclusive_Unblock        28286      0.00%      0.00% (Unspecified)
board.cache_hierarchy.ruby_system.L2Cache_Controller.MT_MB.L1_GETS        38291      0.00%      0.00% (Unspecified)
board.cache_hierarchy.ruby_system.L2Cache_Controller.MT_MB.L1_GETX        60005      0.00%      0.00% (Unspecified)
board.cache_hierarchy.ruby_system.L2Cache_Controller.MT_MB.Exclusive_Unblock        41809      0.00%      0.00% (Unspecified)
board.cache_hierarchy.ruby_system.L2Cache_Controller.MT_IIB.L1_GETS        36800      0.00%      0.00% (Unspecified)
board.cache_hierarchy.ruby_system.L2Cache_Controller.MT_IIB.L1_GETX        32856      0.00%      0.00% (Unspecified)
board.cache_hierarchy.ruby_system.L2Cache_Controller.MT_IIB.WB_Data        28277      0.00%      0.00% (Unspecified)
board.cache_hierarchy.ruby_system.L2Cache_Controller.MT_IIB.WB_Data_clean           34      0.00%      0.00% (Unspecified)
board.cache_hierarchy.ruby_system.L2Cache_Controller.MT_IIB.Unblock          171      0.00%      0.00% (Unspecified)
board.cache_hierarchy.ruby_system.L2Cache_Controller.MT_IB.WB_Data          171      0.00%      0.00% (Unspecified)
board.cache_hierarchy.ruby_system.L2Cache_Controller.MT_SB.L1_GETS          291      0.00%      0.00% (Unspecified)
board.cache_hierarchy.ruby_system.L2Cache_Controller.MT_SB.L1_GETX         2253      0.00%      0.00% (Unspecified)
board.cache_hierarchy.ruby_system.L2Cache_Controller.MT_SB.Unblock        28311      0.00%      0.00% (Unspecified)
board.cache_hierarchy.ruby_system.RequestType.LD.latency_hist_seqr::bucket_size          256                       (Unspecified)
board.cache_hierarchy.ruby_system.RequestType.LD.latency_hist_seqr::max_bucket         2559                       (Unspecified)
board.cache_hierarchy.ruby_system.RequestType.LD.latency_hist_seqr::samples       973591                       (Unspecified)
board.cache_hierarchy.ruby_system.RequestType.LD.latency_hist_seqr::mean     3.965281                       (Unspecified)
board.cache_hierarchy.ruby_system.RequestType.LD.latency_hist_seqr::gmean     1.262571                       (Unspecified)
board.cache_hierarchy.ruby_system.RequestType.LD.latency_hist_seqr::stdev    15.533521                       (Unspecified)
board.cache_hierarchy.ruby_system.RequestType.LD.latency_hist_seqr |      973437     99.98%     99.98% |          92      0.01%     99.99% |          35      0.00%    100.00% |          16      0.00%    100.00% |           3      0.00%    100.00% |           8      0.00%    100.00% |           0      0.00%    100.00% |           0      0.00%    100.00% |           0      0.00%    100.00% |           0      0.00%    100.00% (Unspecified)
board.cache_hierarchy.ruby_system.RequestType.LD.latency_hist_seqr::total       973591                       (Unspecified)
board.cache_hierarchy.ruby_system.RequestType.LD.hit_latency_hist_seqr::bucket_size            1                       (Unspecified)
board.cache_hierarchy.ruby_system.RequestType.LD.hit_latency_hist_seqr::max_bucket            9                       (Unspecified)
board.cache_hierarchy.ruby_system.RequestType.LD.hit_latency_hist_seqr::samples       911140                       (Unspecified)
board.cache_hierarchy.ruby_system.RequestType.LD.hit_latency_hist_seqr::mean            1                       (Unspecified)
board.cache_hierarchy.ruby_system.RequestType.LD.hit_latency_hist_seqr::gmean            1                       (Unspecified)
board.cache_hierarchy.ruby_system.RequestType.LD.hit_latency_hist_seqr |           0      0.00%      0.00% |      911140    100.00%    100.00% |           0      0.00%    100.00% |           0      0.00%    100.00% |           0      0.00%    100.00% |           0      0.00%    100.00% |           0      0.00%    100.00% |           0      0.00%    100.00% |           0      0.00%    100.00% |           0      0.00%    100.00% (Unspecified)
board.cache_hierarchy.ruby_system.RequestType.LD.hit_latency_hist_seqr::total       911140                       (Unspecified)
board.cache_hierarchy.ruby_system.RequestType.LD.miss_latency_hist_seqr::bucket_size          256                       (Unspecified)
board.cache_hierarchy.ruby_system.RequestType.LD.miss_latency_hist_seqr::max_bucket         2559                       (Unspecified)
board.cache_hierarchy.ruby_system.RequestType.LD.miss_latency_hist_seqr::samples        62451                       (Unspecified)
board.cache_hierarchy.ruby_system.RequestType.LD.miss_latency_hist_seqr::mean    47.227779                       (Unspecified)
board.cache_hierarchy.ruby_system.RequestType.LD.miss_latency_hist_seqr::gmean    37.891902                       (Unspecified)
board.cache_hierarchy.ruby_system.RequestType.LD.miss_latency_hist_seqr::stdev    41.973001                       (Unspecified)
board.cache_hierarchy.ruby_system.RequestType.LD.miss_latency_hist_seqr |       62297     99.75%     99.75% |          92      0.15%     99.90% |          35      0.06%     99.96% |          16      0.03%     99.98% |           3      0.00%     99.99% |           8      0.01%    100.00% |           0      0.00%    100.00% |           0      0.00%    100.00% |           0      0.00%    100.00% |           0      0.00%    100.00% (Unspecified)
board.cache_hierarchy.ruby_system.RequestType.LD.miss_latency_hist_seqr::total        62451                       (Unspecified)
board.cache_hierarchy.ruby_system.RequestType.ST.latency_hist_seqr::bucket_size          256                       (Unspecified)
board.cache_hierarchy.ruby_system.RequestType.ST.latency_hist_seqr::max_bucket         2559                       (Unspecified)
board.cache_hierarchy.ruby_system.RequestType.ST.latency_hist_seqr::samples       209418                       (Unspecified)
board.cache_hierarchy.ruby_system.RequestType.ST.latency_hist_seqr::mean    15.994948                       (Unspecified)
board.cache_hierarchy.ruby_system.RequestType.ST.latency_hist_seqr::gmean     3.269686                       (Unspecified)
board.cache_hierarchy.ruby_system.RequestType.ST.latency_hist_seqr::stdev    27.115486                       (Unspecified)
board.cache_hierarchy.ruby_system.RequestType.ST.latency_hist_seqr |      209339     99.96%     99.96% |          61      0.03%     99.99% |          10      0.00%    100.00% |           7      0.00%    100.00% |           0      0.00%    100.00% |           1      0.00%    100.00% |           0      0.00%    100.00% |           0      0.00%    100.00% |           0      0.00%    100.00% |           0      0.00%    100.00% (Unspecified)
board.cache_hierarchy.ruby_system.RequestType.ST.latency_hist_seqr::total       209418                       (Unspecified)
board.cache_hierarchy.ruby_system.RequestType.ST.hit_latency_hist_seqr::bucket_size            1                       (Unspecified)
board.cache_hierarchy.ruby_system.RequestType.ST.hit_latency_hist_seqr::max_bucket            9                       (Unspecified)
board.cache_hierarchy.ruby_system.RequestType.ST.hit_latency_hist_seqr::samples       143473                       (Unspecified)
board.cache_hierarchy.ruby_system.RequestType.ST.hit_latency_hist_seqr::mean            1                       (Unspecified)
board.cache_hierarchy.ruby_system.RequestType.ST.hit_latency_hist_seqr::gmean            1                       (Unspecified)
board.cache_hierarchy.ruby_system.RequestType.ST.hit_latency_hist_seqr |           0      0.00%      0.00% |      143473    100.00%    100.00% |           0      0.00%    100.00% |           0      0.00%    100.00% |           0      0.00%    100.00% |           0      0.00%    100.00% |           0      0.00%    100.00% |           0      0.00%    100.00% |           0      0.00%    100.00% |           0      0.00%    100.00% (Unspecified)
board.cache_hierarchy.ruby_system.RequestType.ST.hit_latency_hist_seqr::total       143473                       (Unspecified)
board.cache_hierarchy.ruby_system.RequestType.ST.miss_latency_hist_seqr::bucket_size          256                       (Unspecified)
board.cache_hierarchy.ruby_system.RequestType.ST.miss_latency_hist_seqr::max_bucket         2559                       (Unspecified)
board.cache_hierarchy.ruby_system.RequestType.ST.miss_latency_hist_seqr::samples        65945                       (Unspecified)
board.cache_hierarchy.ruby_system.RequestType.ST.miss_latency_hist_seqr::mean    48.618652                       (Unspecified)
board.cache_hierarchy.ruby_system.RequestType.ST.miss_latency_hist_seqr::gmean    43.041668                       (Unspecified)
board.cache_hierarchy.ruby_system.RequestType.ST.miss_latency_hist_seqr::stdev    27.953470                       (Unspecified)
board.cache_hierarchy.ruby_system.RequestType.ST.miss_latency_hist_seqr |       65866     99.88%     99.88% |          61      0.09%     99.97% |          10      0.02%     99.99% |           7      0.01%    100.00% |           0      0.00%    100.00% |           1      0.00%    100.00% |           0      0.00%    100.00% |           0      0.00%    100.00% |           0      0.00%    100.00% |           0      0.00%    100.00% (Unspecified)
board.cache_hierarchy.ruby_system.RequestType.ST.miss_latency_hist_seqr::total        65945                       (Unspecified)
board.cache_hierarchy.ruby_system.RequestType.IFETCH.latency_hist_seqr::bucket_size          128                       (Unspecified)
board.cache_hierarchy.ruby_system.RequestType.IFETCH.latency_hist_seqr::max_bucket         1279                       (Unspecified)
board.cache_hierarchy.ruby_system.RequestType.IFETCH.latency_hist_seqr::samples      3293965                       (Unspecified)
board.cache_hierarchy.ruby_system.RequestType.IFETCH.latency_hist_seqr::mean     1.038323                       (Unspecified)
board.cache_hierarchy.ruby_system.RequestType.IFETCH.latency_hist_seqr::gmean     1.001862                       (Unspecified)
board.cache_hierarchy.ruby_system.RequestType.IFETCH.latency_hist_seqr::stdev     3.601700                       (Unspecified)
board.cache_hierarchy.ruby_system.RequestType.IFETCH.latency_hist_seqr |     3293493     99.99%     99.99% |         406      0.01%    100.00% |          13      0.00%    100.00% |          14      0.00%    100.00% |          13      0.00%    100.00% |           0      0.00%    100.00% |           5      0.00%    100.00% |          20      0.00%    100.00% |           1      0.00%    100.00% |           0      0.00%    100.00% (Unspecified)
board.cache_hierarchy.ruby_system.RequestType.IFETCH.latency_hist_seqr::total      3293965                       (Unspecified)
board.cache_hierarchy.ruby_system.RequestType.IFETCH.hit_latency_hist_seqr::bucket_size            1                       (Unspecified)
board.cache_hierarchy.ruby_system.RequestType.IFETCH.hit_latency_hist_seqr::max_bucket            9                       (Unspecified)
board.cache_hierarchy.ruby_system.RequestType.IFETCH.hit_latency_hist_seqr::samples      3292093                       (Unspecified)
board.cache_hierarchy.ruby_system.RequestType.IFETCH.hit_latency_hist_seqr::mean            1                       (Unspecified)
board.cache_hierarchy.ruby_system.RequestType.IFETCH.hit_latency_hist_seqr::gmean            1                       (Unspecified)
board.cache_hierarchy.ruby_system.RequestType.IFETCH.hit_latency_hist_seqr |           0      0.00%      0.00% |     3292093    100.00%    100.00% |           0      0.00%    100.00% |           0      0.00%    100.00% |           0      0.00%    100.00% |           0      0.00%    100.00% |           0      0.00%    100.00% |           0      0.00%    100.00% |           0      0.00%    100.00% |           0      0.00%    100.00% (Unspecified)
board.cache_hierarchy.ruby_system.RequestType.IFETCH.hit_latency_hist_seqr::total      3292093                       (Unspecified)
board.cache_hierarchy.ruby_system.RequestType.IFETCH.miss_latency_hist_seqr::bucket_size          128                       (Unspecified)
board.cache_hierarchy.ruby_system.RequestType.IFETCH.miss_latency_hist_seqr::max_bucket         1279                       (Unspecified)
board.cache_hierarchy.ruby_system.RequestType.IFETCH.miss_latency_hist_seqr::samples         1872                       (Unspecified)
board.cache_hierarchy.ruby_system.RequestType.IFETCH.miss_latency_hist_seqr::mean    68.433226                       (Unspecified)
board.cache_hierarchy.ruby_system.RequestType.IFETCH.miss_latency_hist_seqr::gmean    26.410448                       (Unspecified)
board.cache_hierarchy.ruby_system.RequestType.IFETCH.miss_latency_hist_seqr::stdev   135.244288                       (Unspecified)
board.cache_hierarchy.ruby_system.RequestType.IFETCH.miss_latency_hist_seqr |        1400     74.79%     74.79% |         406     21.69%     96.47% |          13      0.69%     97.17% |          14      0.75%     97.92% |          13      0.69%     98.61% |           0      0.00%     98.61% |           5      0.27%     98.88% |          20      1.07%     99.95% |           1      0.05%    100.00% |           0      0.00%    100.00% (Unspecified)
board.cache_hierarchy.ruby_system.RequestType.IFETCH.miss_latency_hist_seqr::total         1872                       (Unspecified)
board.cache_hierarchy.ruby_system.RequestType.Load_Linked.latency_hist_seqr::bucket_size           32                       (Unspecified)
board.cache_hierarchy.ruby_system.RequestType.Load_Linked.latency_hist_seqr::max_bucket          319                       (Unspecified)
board.cache_hierarchy.ruby_system.RequestType.Load_Linked.latency_hist_seqr::samples           73                       (Unspecified)
board.cache_hierarchy.ruby_system.RequestType.Load_Linked.latency_hist_seqr::mean     6.095890                       (Unspecified)
board.cache_hierarchy.ruby_system.RequestType.Load_Linked.latency_hist_seqr::gmean     1.153466                       (Unspecified)
board.cache_hierarchy.ruby_system.RequestType.Load_Linked.latency_hist_seqr::stdev    31.188123                       (Unspecified)
board.cache_hierarchy.ruby_system.RequestType.Load_Linked.latency_hist_seqr |          71     97.26%     97.26% |           0      0.00%     97.26% |           0      0.00%     97.26% |           0      0.00%     97.26% |           1      1.37%     98.63% |           0      0.00%     98.63% |           0      0.00%     98.63% |           1      1.37%    100.00% |           0      0.00%    100.00% |           0      0.00%    100.00% (Unspecified)
[...]
board.processor.cores9.core.commitStats0.committedInstType::SimdMatMultAcc            0      0.00%     50.60% # Class of committed instruction. (Count)
board.processor.cores9.core.commitStats0.committedInstType::SimdShift            0      0.00%     50.60% # Class of committed instruction. (Count)
board.processor.cores9.core.commitStats0.committedInstType::SimdShiftAcc            0      0.00%     50.60% # Class of committed instruction. (Count)
board.processor.cores9.core.commitStats0.committedInstType::SimdDiv            0      0.00%     50.60% # Class of committed instruction. (Count)
board.processor.cores9.core.commitStats0.committedInstType::SimdSqrt            0      0.00%     50.60% # Class of committed instruction. (Count)
board.processor.cores9.core.commitStats0.committedInstType::SimdFloatAdd            0      0.00%     50.60% # Class of committed instruction. (Count)
board.processor.cores9.core.commitStats0.committedInstType::SimdFloatAlu            0      0.00%     50.60% # Class of committed instruction. (Count)
board.processor.cores9.core.commitStats0.committedInstType::SimdFloatCmp            0      0.00%     50.60% # Class of committed instruction. (Count)
board.processor.cores9.core.commitStats0.committedInstType::SimdFloatCvt            0      0.00%     50.60% # Class of committed instruction. (Count)
board.processor.cores9.core.commitStats0.committedInstType::SimdFloatDiv            0      0.00%     50.60% # Class of committed instruction. (Count)
board.processor.cores9.core.commitStats0.committedInstType::SimdFloatMisc            0      0.00%     50.60% # Class of committed instruction. (Count)
board.processor.cores9.core.commitStats0.committedInstType::SimdFloatMult            0      0.00%     50.60% # Class of committed instruction. (Count)
board.processor.cores9.core.commitStats0.committedInstType::SimdFloatMultAcc            0      0.00%     50.60% # Class of committed instruction. (Count)
board.processor.cores9.core.commitStats0.committedInstType::SimdFloatMatMultAcc            0      0.00%     50.60% # Class of committed instruction. (Count)
board.processor.cores9.core.commitStats0.committedInstType::SimdFloatSqrt            0      0.00%     50.60% # Class of committed instruction. (Count)
board.processor.cores9.core.commitStats0.committedInstType::SimdReduceAdd            0      0.00%     50.60% # Class of committed instruction. (Count)
board.processor.cores9.core.commitStats0.committedInstType::SimdReduceAlu            0      0.00%     50.60% # Class of committed instruction. (Count)
board.processor.cores9.core.commitStats0.committedInstType::SimdReduceCmp            0      0.00%     50.60% # Class of committed instruction. (Count)
board.processor.cores9.core.commitStats0.committedInstType::SimdFloatReduceAdd            0      0.00%     50.60% # Class of committed instruction. (Count)
board.processor.cores9.core.commitStats0.committedInstType::SimdFloatReduceCmp            0      0.00%     50.60% # Class of committed instruction. (Count)
board.processor.cores9.core.commitStats0.committedInstType::SimdAes            0      0.00%     50.60% # Class of committed instruction. (Count)
board.processor.cores9.core.commitStats0.committedInstType::SimdAesMix            0      0.00%     50.60% # Class of committed instruction. (Count)
board.processor.cores9.core.commitStats0.committedInstType::SimdSha1Hash            0      0.00%     50.60% # Class of committed instruction. (Count)
board.processor.cores9.core.commitStats0.committedInstType::SimdSha1Hash2            0      0.00%     50.60% # Class of committed instruction. (Count)
board.processor.cores9.core.commitStats0.committedInstType::SimdSha256Hash            0      0.00%     50.60% # Class of committed instruction. (Count)
board.processor.cores9.core.commitStats0.committedInstType::SimdSha256Hash2            0      0.00%     50.60% # Class of committed instruction. (Count)
board.processor.cores9.core.commitStats0.committedInstType::SimdShaSigma2            0      0.00%     50.60% # Class of committed instruction. (Count)
board.processor.cores9.core.commitStats0.committedInstType::SimdShaSigma3            0      0.00%     50.60% # Class of committed instruction. (Count)
board.processor.cores9.core.commitStats0.committedInstType::SimdSha3            0      0.00%     50.60% # Class of committed instruction. (Count)
board.processor.cores9.core.commitStats0.committedInstType::SimdSm4e            0      0.00%     50.60% # Class of committed instruction. (Count)
board.processor.cores9.core.commitStats0.committedInstType::SimdCrc            0      0.00%     50.60% # Class of committed instruction. (Count)
board.processor.cores9.core.commitStats0.committedInstType::SimdPredAlu            0      0.00%     50.60% # Class of committed instruction. (Count)
board.processor.cores9.core.commitStats0.committedInstType::SimdDotProd            0      0.00%     50.60% # Class of committed instruction. (Count)
board.processor.cores9.core.commitStats0.committedInstType::Matrix            0      0.00%     50.60% # Class of committed instruction. (Count)
board.processor.cores9.core.commitStats0.committedInstType::MatrixMov            0      0.00%     50.60% # Class of committed instruction. (Count)
board.processor.cores9.core.commitStats0.committedInstType::MatrixOP            0      0.00%     50.60% # Class of committed instruction. (Count)
board.processor.cores9.core.commitStats0.committedInstType::MemRead        51644     41.22%     91.81% # Class of committed instruction. (Count)
board.processor.cores9.core.commitStats0.committedInstType::MemWrite        10244      8.18%     99.99% # Class of committed instruction. (Count)
board.processor.cores9.core.commitStats0.committedInstType::FloatMemRead            0      0.00%     99.99% # Class of committed instruction. (Count)
board.processor.cores9.core.commitStats0.committedInstType::FloatMemWrite           12      0.01%    100.00% # Class of committed instruction. (Count)
board.processor.cores9.core.commitStats0.committedInstType::InstPrefetch            0      0.00%    100.00% # Class of committed instruction. (Count)
board.processor.cores9.core.commitStats0.committedInstType::SimdUnitStrideLoad            0      0.00%    100.00% # Class of committed instruction. (Count)
board.processor.cores9.core.commitStats0.committedInstType::SimdUnitStrideStore            0      0.00%    100.00% # Class of committed instruction. (Count)
board.processor.cores9.core.commitStats0.committedInstType::SimdUnitStrideMaskLoad            0      0.00%    100.00% # Class of committed instruction. (Count)
board.processor.cores9.core.commitStats0.committedInstType::SimdUnitStrideMaskStore            0      0.00%    100.00% # Class of committed instruction. (Count)
board.processor.cores9.core.commitStats0.committedInstType::SimdStridedLoad            0      0.00%    100.00% # Class of committed instruction. (Count)
board.processor.cores9.core.commitStats0.committedInstType::SimdStridedStore            0      0.00%    100.00% # Class of committed instruction. (Count)
board.processor.cores9.core.commitStats0.committedInstType::SimdIndexedLoad            0      0.00%    100.00% # Class of committed instruction. (Count)
board.processor.cores9.core.commitStats0.committedInstType::SimdIndexedStore            0      0.00%    100.00% # Class of committed instruction. (Count)
board.processor.cores9.core.commitStats0.committedInstType::SimdWholeRegisterLoad            0      0.00%    100.00% # Class of committed instruction. (Count)
board.processor.cores9.core.commitStats0.committedInstType::SimdWholeRegisterStore            0      0.00%    100.00% # Class of committed instruction. (Count)
board.processor.cores9.core.commitStats0.committedInstType::SimdUnitStrideFaultOnlyFirstLoad            0      0.00%    100.00% # Class of committed instruction. (Count)
board.processor.cores9.core.commitStats0.committedInstType::SimdUnitStrideSegmentedLoad            0      0.00%    100.00% # Class of committed instruction. (Count)
board.processor.cores9.core.commitStats0.committedInstType::SimdUnitStrideSegmentedStore            0      0.00%    100.00% # Class of committed instruction. (Count)
board.processor.cores9.core.commitStats0.committedInstType::SimdUnitStrideSegmentedFaultOnlyFirstLoad            0      0.00%    100.00% # Class of committed instruction. (Count)
board.processor.cores9.core.commitStats0.committedInstType::SimdStrideSegmentedLoad            0      0.00%    100.00% # Class of committed instruction. (Count)
board.processor.cores9.core.commitStats0.committedInstType::SimdStrideSegmentedStore            0      0.00%    100.00% # Class of committed instruction. (Count)
board.processor.cores9.core.commitStats0.committedInstType::SimdExt            0      0.00%    100.00% # Class of committed instruction. (Count)
board.processor.cores9.core.commitStats0.committedInstType::SimdFloatExt            0      0.00%    100.00% # Class of committed instruction. (Count)
board.processor.cores9.core.commitStats0.committedInstType::SimdConfig            0      0.00%    100.00% # Class of committed instruction. (Count)
board.processor.cores9.core.commitStats0.committedInstType::SimdBf16Add            0      0.00%    100.00% # Class of committed instruction. (Count)
board.processor.cores9.core.commitStats0.committedInstType::SimdBf16Cmp            0      0.00%    100.00% # Class of committed instruction. (Count)
board.processor.cores9.core.commitStats0.committedInstType::SimdBf16Cvt            0      0.00%    100.00% # Class of committed instruction. (Count)
board.processor.cores9.core.commitStats0.committedInstType::SimdBf16DotProd            0      0.00%    100.00% # Class of committed instruction. (Count)
board.processor.cores9.core.commitStats0.committedInstType::SimdBf16MatMultAcc            0      0.00%    100.00% # Class of committed instruction. (Count)
board.processor.cores9.core.commitStats0.committedInstType::SimdBf16Mult            0      0.00%    100.00% # Class of committed instruction. (Count)
board.processor.cores9.core.commitStats0.committedInstType::SimdBf16MultAcc            0      0.00%    100.00% # Class of committed instruction. (Count)
board.processor.cores9.core.commitStats0.committedInstType::Bf16Cvt            0      0.00%    100.00% # Class of committed instruction. (Count)
board.processor.cores9.core.commitStats0.committedInstType::System            0      0.00%    100.00% # Class of committed instruction. (Count)
board.processor.cores9.core.commitStats0.committedInstType::total       125292                       # Class of committed instruction. (Count)
board.processor.cores9.core.commitStats0.committedControl::IsControl        11967                       # Class of control type instructions committed (Count)
board.processor.cores9.core.commitStats0.committedControl::IsDirectControl        11037                       # Class of control type instructions committed (Count)
board.processor.cores9.core.commitStats0.committedControl::IsIndirectControl          930                       # Class of control type instructions committed (Count)
board.processor.cores9.core.commitStats0.committedControl::IsCondControl         5995                       # Class of control type instructions committed (Count)
board.processor.cores9.core.commitStats0.committedControl::IsUncondControl         5972                       # Class of control type instructions committed (Count)
board.processor.cores9.core.commitStats0.committedControl::IsCall          932                       # Class of control type instructions committed (Count)
board.processor.cores9.core.commitStats0.committedControl::IsReturn          925                       # Class of control type instructions committed (Count)
board.processor.cores9.core.commitStats0.functionCalls          932                       # Number of function calls committed (Count)
board.processor.cores9.core.commitStats0.numCallsReturns         1857                       # Number of function calls and returns committed (Count)
board.processor.cores9.core.exec_context.thread_0.numMatAluAccesses            0                       # Number of matrix alu accesses (Count)
board.processor.cores9.core.exec_context.thread_0.numMatInsts            0                       # Number of matrix instructions (Count)
board.processor.cores9.core.exec_context.thread_0.numIdleCycles 721511.779967                       # Number of idle cycles (Cycle)
board.processor.cores9.core.exec_context.thread_0.numBusyCycles 4896361.220033                       # Number of busy cycles (Cycle)
board.processor.cores9.core.exec_context.thread_0.notIdleFraction     0.871569                       # Percentage of non-idle cycles (Ratio)
board.processor.cores9.core.exec_context.thread_0.idleFraction     0.128431                       # Percentage of idle cycles (Ratio)
board.processor.cores9.core.executeStats0.numInsts       125285                       # Number of executed instructions (Count)
board.processor.cores9.core.executeStats0.numNop            0                       # Number of nop insts executed (Count)
board.processor.cores9.core.executeStats0.numBranches        11967                       # Number of branches executed (Count)
board.processor.cores9.core.executeStats0.numLoadInsts        51640                       # Number of load instructions executed (Count)
board.processor.cores9.core.executeStats0.numStoreInsts        10260                       # Number of stores executed (Count)
board.processor.cores9.core.executeStats0.instRate     0.022301                       # Inst execution rate ((Count/Cycle))
board.processor.cores9.core.executeStats0.numFpAluAccesses           12                       # Number of float alu accesses (Count)
board.processor.cores9.core.executeStats0.numFpRegReads           12                       # Number of times the floating registers were read (Count)
board.processor.cores9.core.executeStats0.numFpRegWrites            0                       # Number of times the floating registers were written (Count)
board.processor.cores9.core.executeStats0.numIntAluAccesses       121169                       # Number of integer alu accesses (Count)
board.processor.cores9.core.executeStats0.numIntRegReads       151885                       # Number of times the integer registers were read (Count)
board.processor.cores9.core.executeStats0.numIntRegWrites       103087                       # Number of times the integer registers were written (Count)
board.processor.cores9.core.executeStats0.numMemRefs        61900                       # Number of memory refs (Count)
board.processor.cores9.core.executeStats0.numMiscRegReads           28                       # Number of times the Misc registers were read (Count)
board.processor.cores9.core.executeStats0.numVecAluAccesses            0                       # Number of vector alu accesses (Count)
board.processor.cores9.core.executeStats0.numDiscardedOps            0                       # Number of ops (including micro ops) which were discarded before commit (Count)
board.processor.cores9.core.fetchStats0.numInsts       125288                       # Number of instructions fetched (thread level) (Count)
board.processor.cores9.core.fetchStats0.numOps       125295                       # Number of ops (including micro ops) fetched (thread level) (Count)
board.processor.cores9.core.fetchStats0.fetchRate     0.022302                       # Number of inst fetches per cycle ((Count/Cycle))
board.processor.cores9.core.fetchStats0.numBranches        11967                       # Number of branches fetched (Count)
board.processor.cores9.core.fetchStats0.branchRate     0.002130                       # Number of branch fetches per cycle (Ratio)
board.processor.cores9.core.fetchStats0.numFetchSuspends            0                       # Number of times Execute suspended instruction fetching (Count)
board.processor.cores9.core.mmu.dtb.readHits            0                       # read hits (Count)
board.processor.cores9.core.mmu.dtb.readMisses            0                       # read misses (Count)
board.processor.cores9.core.mmu.dtb.readAccesses            0                       # read accesses (Count)
board.processor.cores9.core.mmu.dtb.writeHits            0                       # write hits (Count)
board.processor.cores9.core.mmu.dtb.writeMisses            0                       # write misses (Count)
board.processor.cores9.core.mmu.dtb.writeAccesses            0                       # write accesses (Count)
board.processor.cores9.core.mmu.dtb.hits            0                       # Total TLB (read and write) hits (Count)
board.processor.cores9.core.mmu.dtb.misses            0                       # Total TLB (read and write) misses (Count)
board.processor.cores9.core.mmu.dtb.accesses            0                       # Total TLB (read and write) accesses (Count)
board.processor.cores9.core.mmu.dtb.walker.num_4kb_walks            0                       # Completed page walks with 4KB pages (Count)
board.processor.cores9.core.mmu.dtb.walker.num_64kb_walks            0                       # Completed page walks with 64KB pages (Count)
board.processor.cores9.core.mmu.dtb.walker.num_2mb_walks            0                       # Completed page walks with 2MB pages (Count)
board.processor.cores9.core.mmu.dtb.walker.power_state.pwrStateResidencyTicks::UNDEFINED   1870752042                       # Cumulative time (in ticks) in various power states (Tick)
board.processor.cores9.core.mmu.itb.readHits            0                       # read hits (Count)
board.processor.cores9.core.mmu.itb.readMisses            0                       # read misses (Count)
board.processor.cores9.core.mmu.itb.readAccesses            0                       # read accesses (Count)
board.processor.cores9.core.mmu.itb.writeHits            0                       # write hits (Count)
board.processor.cores9.core.mmu.itb.writeMisses            0                       # write misses (Count)
board.processor.cores9.core.mmu.itb.writeAccesses            0                       # write accesses (Count)
board.processor.cores9.core.mmu.itb.hits            0                       # Total TLB (read and write) hits (Count)
board.processor.cores9.core.mmu.itb.misses            0                       # Total TLB (read and write) misses (Count)
board.processor.cores9.core.mmu.itb.accesses            0                       # Total TLB (read and write) accesses (Count)
board.processor.cores9.core.mmu.itb.walker.num_4kb_walks            0                       # Completed page walks with 4KB pages (Count)
board.processor.cores9.core.mmu.itb.walker.num_64kb_walks            0                       # Completed page walks with 64KB pages (Count)
board.processor.cores9.core.mmu.itb.walker.num_2mb_walks            0                       # Completed page walks with 2MB pages (Count)
board.processor.cores9.core.mmu.itb.walker.power_state.pwrStateResidencyTicks::UNDEFINED   1870752042                       # Cumulative time (in ticks) in various power states (Tick)
board.processor.cores9.core.power_state.pwrStateResidencyTicks::ON   1870752042                       # Cumulative time (in ticks) in various power states (Tick)
board.processor.cores9.core.thread_0.numInsts       125285                       # Number of Instructions committed (Count)
board.processor.cores9.core.thread_0.numOps       125292                       # Number of Ops committed (Count)
board.processor.cores9.core.thread_0.numMemRefs        61900                       # Number of Memory References (Count)
board.workload.inst.arm                             0                       # number of arm instructions executed (Count)
board.workload.inst.quiesce                         0                       # number of quiesce instructions executed (Count)

---------- End Simulation Statistics   ----------
