
---------- Begin Simulation Statistics ----------
simSeconds                                   0.047208                       # Number of seconds simulated (Second)
simTicks                                  47207858886                       # Number of ticks simulated (Tick)
finalTick                                 47207858886                       # Number of ticks from beginning of simulation (restored from checkpoints and never reset) (Tick)
simFreq                                  1000000000000                       # The number of ticks per simulated second ((Tick/Second))
hostSeconds                                    401.22                       # Real time elapsed on the host (Second)
hostTickRate                                117660208                       # The number of ticks simulated per host second (ticks/s) ((Tick/Second))
hostMemory                                    2706764                       # Number of bytes of host memory used (Byte)
simInsts                                     62108183                       # Number of instructions simulated (Count)
simOps                                       62108557                       # Number of ops (including micro ops) simulated (Count)
hostInstRate                                   154798                       # Simulator instruction rate (inst/s) ((Count/Second))
hostOpRate                                     154798                       # Simulator op (including micro ops) rate (op/s) ((Count/Second))
board.cache_hierarchy.ruby_system.delayHistogram::bucket_size         2048                       # delay histogram for all message (Unspecified)
board.cache_hierarchy.ruby_system.delayHistogram::max_bucket        20479                       # delay histogram for all message (Unspecified)
board.cache_hierarchy.ruby_system.delayHistogram::samples      5328567                       # delay histogram for all message (Unspecified)
board.cache_hierarchy.ruby_system.delayHistogram::mean     1.175193                       # delay histogram for all message (Unspecified)
board.cache_hierarchy.ruby_system.delayHistogram::stdev     9.070329                       # delay histogram for all message (Unspecified)
board.cache_hierarchy.ruby_system.delayHistogram |     5328558    100.00%    100.00% |           3      0.00%    100.00% |           2      0.00%    100.00% |           2      0.00%    100.00% |           1      0.00%    100.00% |           1      0.00%    100.00% |           0      0.00%    100.00% |           0      0.00%    100.00% |           0      0.00%    100.00% |           0      0.00%    100.00% # delay histogram for all message (Unspecified)
board.cache_hierarchy.ruby_system.delayHistogram::total      5328567                       # delay histogram for all message (Unspecified)
board.cache_hierarchy.ruby_system.m_outstandReqHistSeqr::bucket_size            1                       (Unspecified)
board.cache_hierarchy.ruby_system.m_outstandReqHistSeqr::max_bucket            9                       (Unspecified)
board.cache_hierarchy.ruby_system.m_outstandReqHistSeqr::samples     49337456                       (Unspecified)
board.cache_hierarchy.ruby_system.m_outstandReqHistSeqr::mean     1.377486                       (Unspecified)
board.cache_hierarchy.ruby_system.m_outstandReqHistSeqr::gmean     1.285486                       (Unspecified)
board.cache_hierarchy.ruby_system.m_outstandReqHistSeqr::stdev     0.555070                       (Unspecified)
board.cache_hierarchy.ruby_system.m_outstandReqHistSeqr |           0      0.00%      0.00% |    32516860     65.91%     65.91% |    15016996     30.44%     96.34% |     1803600      3.66%    100.00% |           0      0.00%    100.00% |           0      0.00%    100.00% |           0      0.00%    100.00% |           0      0.00%    100.00% |           0      0.00%    100.00% |           0      0.00%    100.00% (Unspecified)
board.cache_hierarchy.ruby_system.m_outstandReqHistSeqr::total     49337456                       (Unspecified)
board.cache_hierarchy.ruby_system.m_latencyHistSeqr::bucket_size          256                       (Unspecified)
board.cache_hierarchy.ruby_system.m_latencyHistSeqr::max_bucket         2559                       (Unspecified)
board.cache_hierarchy.ruby_system.m_latencyHistSeqr::samples     49712468                       (Unspecified)
board.cache_hierarchy.ruby_system.m_latencyHistSeqr::mean     6.166636                       (Unspecified)
board.cache_hierarchy.ruby_system.m_latencyHistSeqr::gmean     1.097920                       (Unspecified)
board.cache_hierarchy.ruby_system.m_latencyHistSeqr::stdev    46.424831                       (Unspecified)
board.cache_hierarchy.ruby_system.m_latencyHistSeqr |    49303777     99.18%     99.18% |      304554      0.61%     99.79% |       89415      0.18%     99.97% |        6489      0.01%     99.98% |        5743      0.01%     99.99% |        2225      0.00%    100.00% |         264      0.00%    100.00% |           1      0.00%    100.00% |           0      0.00%    100.00% |           0      0.00%    100.00% (Unspecified)
board.cache_hierarchy.ruby_system.m_latencyHistSeqr::total     49712468                       (Unspecified)
board.cache_hierarchy.ruby_system.m_hitLatencyHistSeqr::bucket_size           64                       (Unspecified)
board.cache_hierarchy.ruby_system.m_hitLatencyHistSeqr::max_bucket          639                       (Unspecified)
board.cache_hierarchy.ruby_system.m_hitLatencyHistSeqr::samples     48945297                       (Unspecified)
board.cache_hierarchy.ruby_system.m_hitLatencyHistSeqr::mean     1.007946                       (Unspecified)
board.cache_hierarchy.ruby_system.m_hitLatencyHistSeqr::gmean     1.005333                       (Unspecified)
board.cache_hierarchy.ruby_system.m_hitLatencyHistSeqr::stdev     0.253343                       (Unspecified)
board.cache_hierarchy.ruby_system.m_hitLatencyHistSeqr |    48945206    100.00%    100.00% |          80      0.00%    100.00% |           0      0.00%    100.00% |           0      0.00%    100.00% |           0      0.00%    100.00% |           9      0.00%    100.00% |           0      0.00%    100.00% |           2      0.00%    100.00% |           0      0.00%    100.00% |           0      0.00%    100.00% (Unspecified)
board.cache_hierarchy.ruby_system.m_hitLatencyHistSeqr::total     48945297                       (Unspecified)
board.cache_hierarchy.ruby_system.m_missLatencyHistSeqr::bucket_size          256                       (Unspecified)
board.cache_hierarchy.ruby_system.m_missLatencyHistSeqr::max_bucket         2559                       (Unspecified)
board.cache_hierarchy.ruby_system.m_missLatencyHistSeqr::samples       767171                       (Unspecified)
board.cache_hierarchy.ruby_system.m_missLatencyHistSeqr::mean   335.289646                       (Unspecified)
board.cache_hierarchy.ruby_system.m_missLatencyHistSeqr::gmean   303.107632                       (Unspecified)
board.cache_hierarchy.ruby_system.m_missLatencyHistSeqr::stdev   172.153157                       (Unspecified)
board.cache_hierarchy.ruby_system.m_missLatencyHistSeqr |      358491     46.73%     46.73% |      304543     39.70%     86.43% |       89415     11.66%     98.08% |        6489      0.85%     98.93% |        5743      0.75%     99.68% |        2225      0.29%     99.97% |         264      0.03%    100.00% |           1      0.00%    100.00% |           0      0.00%    100.00% |           0      0.00%    100.00% (Unspecified)
board.cache_hierarchy.ruby_system.m_missLatencyHistSeqr::total       767171                       (Unspecified)
board.cache_hierarchy.ruby_system.delayVCHist.vnet_0::bucket_size         2048                       # delay histogram for vnet_0 (Unspecified)
board.cache_hierarchy.ruby_system.delayVCHist.vnet_0::max_bucket        20479                       # delay histogram for vnet_0 (Unspecified)
board.cache_hierarchy.ruby_system.delayVCHist.vnet_0::samples      1905067                       # delay histogram for vnet_0 (Unspecified)
board.cache_hierarchy.ruby_system.delayVCHist.vnet_0::mean     2.209351                       # delay histogram for vnet_0 (Unspecified)
board.cache_hierarchy.ruby_system.delayVCHist.vnet_0::stdev    14.871755                       # delay histogram for vnet_0 (Unspecified)
board.cache_hierarchy.ruby_system.delayVCHist.vnet_0 |     1905058    100.00%    100.00% |           3      0.00%    100.00% |           2      0.00%    100.00% |           2      0.00%    100.00% |           1      0.00%    100.00% |           1      0.00%    100.00% |           0      0.00%    100.00% |           0      0.00%    100.00% |           0      0.00%    100.00% |           0      0.00%    100.00% # delay histogram for vnet_0 (Unspecified)
board.cache_hierarchy.ruby_system.delayVCHist.vnet_0::total      1905067                       # delay histogram for vnet_0 (Unspecified)
board.cache_hierarchy.ruby_system.delayVCHist.vnet_1::bucket_size           16                       # delay histogram for vnet_1 (Unspecified)
board.cache_hierarchy.ruby_system.delayVCHist.vnet_1::max_bucket          159                       # delay histogram for vnet_1 (Unspecified)
board.cache_hierarchy.ruby_system.delayVCHist.vnet_1::samples      3042329                       # delay histogram for vnet_1 (Unspecified)
board.cache_hierarchy.ruby_system.delayVCHist.vnet_1::mean     0.671719                       # delay histogram for vnet_1 (Unspecified)
board.cache_hierarchy.ruby_system.delayVCHist.vnet_1::stdev     2.122937                       # delay histogram for vnet_1 (Unspecified)
board.cache_hierarchy.ruby_system.delayVCHist.vnet_1 |     3035541     99.78%     99.78% |        6573      0.22%     99.99% |         131      0.00%    100.00% |          39      0.00%    100.00% |          13      0.00%    100.00% |          15      0.00%    100.00% |          13      0.00%    100.00% |           4      0.00%    100.00% |           0      0.00%    100.00% |           0      0.00%    100.00% # delay histogram for vnet_1 (Unspecified)
board.cache_hierarchy.ruby_system.delayVCHist.vnet_1::total      3042329                       # delay histogram for vnet_1 (Unspecified)
board.cache_hierarchy.ruby_system.delayVCHist.vnet_2::bucket_size            1                       # delay histogram for vnet_2 (Unspecified)
board.cache_hierarchy.ruby_system.delayVCHist.vnet_2::max_bucket            9                       # delay histogram for vnet_2 (Unspecified)
board.cache_hierarchy.ruby_system.delayVCHist.vnet_2::samples       381171                       # delay histogram for vnet_2 (Unspecified)
board.cache_hierarchy.ruby_system.delayVCHist.vnet_2::mean     0.025039                       # delay histogram for vnet_2 (Unspecified)
board.cache_hierarchy.ruby_system.delayVCHist.vnet_2::stdev     0.228151                       # delay histogram for vnet_2 (Unspecified)
board.cache_hierarchy.ruby_system.delayVCHist.vnet_2 |      376517     98.78%     98.78% |           0      0.00%     98.78% |        4542      1.19%     99.97% |           0      0.00%     99.97% |         106      0.03%    100.00% |           0      0.00%    100.00% |           6      0.00%    100.00% |           0      0.00%    100.00% |           0      0.00%    100.00% |           0      0.00%    100.00% # delay histogram for vnet_2 (Unspecified)
board.cache_hierarchy.ruby_system.delayVCHist.vnet_2::total       381171                       # delay histogram for vnet_2 (Unspecified)
board.cache_hierarchy.ruby_system.Directory_Controller.Fetch       758414      0.00%      0.00% (Unspecified)
board.cache_hierarchy.ruby_system.Directory_Controller.Data       501558      0.00%      0.00% (Unspecified)
board.cache_hierarchy.ruby_system.Directory_Controller.Memory_Data       758414      0.00%      0.00% (Unspecified)
board.cache_hierarchy.ruby_system.Directory_Controller.Memory_Ack       501558      0.00%      0.00% (Unspecified)
board.cache_hierarchy.ruby_system.Directory_Controller.CleanReplacement       252760      0.00%      0.00% (Unspecified)
board.cache_hierarchy.ruby_system.Directory_Controller.I.Fetch       758414      0.00%      0.00% (Unspecified)
board.cache_hierarchy.ruby_system.Directory_Controller.M.Data       501558      0.00%      0.00% (Unspecified)
board.cache_hierarchy.ruby_system.Directory_Controller.M.CleanReplacement       252760      0.00%      0.00% (Unspecified)
board.cache_hierarchy.ruby_system.Directory_Controller.IM.Memory_Data       758414      0.00%      0.00% (Unspecified)
board.cache_hierarchy.ruby_system.Directory_Controller.MI.Memory_Ack       501558      0.00%      0.00% (Unspecified)
board.cache_hierarchy.ruby_system.L1Cache_Controller.Load |    15632496     63.45%     63.45% |      616762      2.50%     65.95% |      605898      2.46%     68.41% |      609927      2.48%     70.88% |      605926      2.46%     73.34% |      606873      2.46%     75.81% |      611512      2.48%     78.29% |      604958      2.46%     80.74% |      602996      2.45%     83.19% |      600560      2.44%     85.63% |      593356      2.41%     88.04% |      598007      2.43%     90.46% |      591926      2.40%     92.86% |      586588      2.38%     95.25% |      585211      2.38%     97.62% |      586366      2.38%    100.00% (Unspecified)
board.cache_hierarchy.ruby_system.L1Cache_Controller.Load::total     24639362                       (Unspecified)
board.cache_hierarchy.ruby_system.L1Cache_Controller.Ifetch |    12436673     71.82%     71.82% |      357969      2.07%     73.88% |      336242      1.94%     75.83% |      344266      1.99%     77.81% |      336334      1.94%     79.76% |      338212      1.95%     81.71% |      347490      2.01%     83.72% |      334379      1.93%     85.65% |      330432      1.91%     87.55% |      325557      1.88%     89.43% |      311147      1.80%     91.23% |      320475      1.85%     93.08% |      308285      1.78%     94.86% |      297662      1.72%     96.58% |      294872      1.70%     98.28% |      297178      1.72%    100.00% (Unspecified)
board.cache_hierarchy.ruby_system.L1Cache_Controller.Ifetch::total     17317173                       (Unspecified)
board.cache_hierarchy.ruby_system.L1Cache_Controller.Store |     5769447     74.39%     74.39% |      138949      1.79%     76.18% |      134599      1.74%     77.92% |      136206      1.76%     79.67% |      134615      1.74%     81.41% |      134993      1.74%     83.15% |      136850      1.76%     84.91% |      134222      1.73%     86.64% |      133438      1.72%     88.36% |      132463      1.71%     90.07% |      129575      1.67%     91.74% |      131447      1.69%     93.44% |      129011      1.66%     95.10% |      126882      1.64%     96.74% |      126328      1.63%     98.37% |      126782      1.63%    100.00% (Unspecified)
board.cache_hierarchy.ruby_system.L1Cache_Controller.Store::total      7755807                       (Unspecified)
board.cache_hierarchy.ruby_system.L1Cache_Controller.Inv |       25591      6.72%      6.72% |       23848      6.26%     12.98% |       23674      6.22%     19.19% |       23726      6.23%     25.42% |       23622      6.20%     31.63% |       23703      6.22%     37.85% |       23848      6.26%     44.11% |       23782      6.24%     50.35% |       23716      6.23%     56.58% |       23680      6.22%     62.80% |       23670      6.21%     69.01% |       23808      6.25%     75.26% |       23574      6.19%     81.45% |       23490      6.17%     87.62% |       23576      6.19%     93.81% |       23594      6.19%    100.00% (Unspecified)
board.cache_hierarchy.ruby_system.L1Cache_Controller.Inv::total       380902                       (Unspecified)
board.cache_hierarchy.ruby_system.L1Cache_Controller.L1_Replacement |      400904     53.74%     53.74% |       23004      3.08%     56.83% |       23001      3.08%     59.91% |       23004      3.08%     63.00% |       23001      3.08%     66.08% |       23004      3.08%     69.16% |       23001      3.08%     72.25% |       23004      3.08%     75.33% |       23001      3.08%     78.41% |       23004      3.08%     81.50% |       23001      3.08%     84.58% |       23004      3.08%     87.67% |       23001      3.08%     90.75% |       23004      3.08%     93.83% |       23003      3.08%     96.92% |       23002      3.08%    100.00% (Unspecified)
board.cache_hierarchy.ruby_system.L1Cache_Controller.L1_Replacement::total       745943                       (Unspecified)
board.cache_hierarchy.ruby_system.L1Cache_Controller.Fwd_GETX |          65     49.24%     49.24% |           4      3.03%     52.27% |           5      3.79%     56.06% |           5      3.79%     59.85% |           5      3.79%     63.64% |           4      3.03%     66.67% |           5      3.79%     70.45% |           4      3.03%     73.48% |           5      3.79%     77.27% |           5      3.79%     81.06% |           5      3.79%     84.85% |           5      3.79%     88.64% |           5      3.79%     92.42% |           4      3.03%     95.45% |           4      3.03%     98.48% |           2      1.52%    100.00% (Unspecified)
board.cache_hierarchy.ruby_system.L1Cache_Controller.Fwd_GETX::total          132                       (Unspecified)
board.cache_hierarchy.ruby_system.L1Cache_Controller.Fwd_GETS |         124     90.51%     90.51% |           9      6.57%     97.08% |           0      0.00%     97.08% |           0      0.00%     97.08% |           0      0.00%     97.08% |           0      0.00%     97.08% |           0      0.00%     97.08% |           0      0.00%     97.08% |           0      0.00%     97.08% |           0      0.00%     97.08% |           0      0.00%     97.08% |           0      0.00%     97.08% |           0      0.00%     97.08% |           0      0.00%     97.08% |           3      2.19%     99.27% |           1      0.73%    100.00% (Unspecified)
board.cache_hierarchy.ruby_system.L1Cache_Controller.Fwd_GETS::total          137                       (Unspecified)
board.cache_hierarchy.ruby_system.L1Cache_Controller.Data_Exclusive |       17531      6.87%      6.87% |       15847      6.21%     13.08% |       15811      6.20%     19.27% |       15812      6.20%     25.47% |       15812      6.20%     31.67% |       15838      6.21%     37.87% |       15869      6.22%     44.09% |       15873      6.22%     50.31% |       15834      6.20%     56.51% |       15837      6.21%     62.72% |       15869      6.22%     68.94% |       15869      6.22%     75.15% |       15835      6.20%     81.36% |       15833      6.20%     87.56% |       15867      6.22%     93.78% |       15873      6.22%    100.00% (Unspecified)
board.cache_hierarchy.ruby_system.L1Cache_Controller.Data_Exclusive::total       255210                       (Unspecified)
board.cache_hierarchy.ruby_system.L1Cache_Controller.DataS_fromL1 |           1      0.73%      0.73% |          17     12.41%     13.14% |          17     12.41%     25.55% |          13      9.49%     35.04% |           7      5.11%     40.15% |           7      5.11%     45.26% |           7      5.11%     50.36% |           7      5.11%     55.47% |           7      5.11%     60.58% |           7      5.11%     65.69% |           7      5.11%     70.80% |           9      6.57%     77.37% |           7      5.11%     82.48% |           9      6.57%     89.05% |           8      5.84%     94.89% |           7      5.11%    100.00% (Unspecified)
board.cache_hierarchy.ruby_system.L1Cache_Controller.DataS_fromL1::total          137                       (Unspecified)
board.cache_hierarchy.ruby_system.L1Cache_Controller.Data_all_Acks |      385591     75.34%     75.34% |        8394      1.64%     76.98% |        8400      1.64%     78.63% |        8406      1.64%     80.27% |        8413      1.64%     81.91% |        8414      1.64%     83.56% |        8412      1.64%     85.20% |        8414      1.64%     86.84% |        8415      1.64%     88.49% |        8415      1.64%     90.13% |        8414      1.64%     91.78% |        8416      1.64%     93.42% |        8414      1.64%     95.07% |        8417      1.64%     96.71% |        8422      1.65%     98.36% |        8414      1.64%    100.00% (Unspecified)
board.cache_hierarchy.ruby_system.L1Cache_Controller.Data_all_Acks::total       511771                       (Unspecified)
board.cache_hierarchy.ruby_system.L1Cache_Controller.Ack |          15     20.00%     20.00% |           2      2.67%     22.67% |           2      2.67%     25.33% |           2      2.67%     28.00% |           2      2.67%     30.67% |           2      2.67%     33.33% |           2      2.67%     36.00% |           2      2.67%     38.67% |           2      2.67%     41.33% |           2      2.67%     44.00% |           2      2.67%     46.67% |           2      2.67%     49.33% |           2      2.67%     52.00% |           2      2.67%     54.67% |          17     22.67%     77.33% |          17     22.67%    100.00% (Unspecified)
board.cache_hierarchy.ruby_system.L1Cache_Controller.Ack::total           75                       (Unspecified)
board.cache_hierarchy.ruby_system.L1Cache_Controller.Ack_all |          15     31.91%     31.91% |           2      4.26%     36.17% |           2      4.26%     40.43% |           2      4.26%     44.68% |           2      4.26%     48.94% |           2      4.26%     53.19% |           2      4.26%     57.45% |           2      4.26%     61.70% |           2      4.26%     65.96% |           2      4.26%     70.21% |           2      4.26%     74.47% |           2      4.26%     78.72% |           2      4.26%     82.98% |           2      4.26%     87.23% |           3      6.38%     93.62% |           3      6.38%    100.00% (Unspecified)
board.cache_hierarchy.ruby_system.L1Cache_Controller.Ack_all::total           47                       (Unspecified)
board.cache_hierarchy.ruby_system.L1Cache_Controller.WB_Ack |      376876     98.82%     98.82% |         307      0.08%     98.90% |         268      0.07%     98.97% |         302      0.08%     99.05% |         311      0.08%     99.13% |         305      0.08%     99.21% |         302      0.08%     99.29% |         287      0.08%     99.36% |         310      0.08%     99.44% |         308      0.08%     99.53% |         302      0.08%     99.60% |         271      0.07%     99.68% |         302      0.08%     99.75% |         332      0.09%     99.84% |         294      0.08%     99.92% |         310      0.08%    100.00% (Unspecified)
board.cache_hierarchy.ruby_system.L1Cache_Controller.WB_Ack::total       381387                       (Unspecified)
board.cache_hierarchy.ruby_system.L1Cache_Controller.Load_Linked |         128    100.00%    100.00% |           0      0.00%    100.00% |           0      0.00%    100.00% |           0      0.00%    100.00% |           0      0.00%    100.00% |           0      0.00%    100.00% |           0      0.00%    100.00% |           0      0.00%    100.00% |           0      0.00%    100.00% |           0      0.00%    100.00% |           0      0.00%    100.00% |           0      0.00%    100.00% |           0      0.00%    100.00% |           0      0.00%    100.00% |           0      0.00%    100.00% |           0      0.00%    100.00% (Unspecified)
board.cache_hierarchy.ruby_system.L1Cache_Controller.Load_Linked::total          128                       (Unspecified)
board.cache_hierarchy.ruby_system.L1Cache_Controller.LLSC_Data_all_Acks |           6    100.00%    100.00% |           0      0.00%    100.00% |           0      0.00%    100.00% |           0      0.00%    100.00% |           0      0.00%    100.00% |           0      0.00%    100.00% |           0      0.00%    100.00% |           0      0.00%    100.00% |           0      0.00%    100.00% |           0      0.00%    100.00% |           0      0.00%    100.00% |           0      0.00%    100.00% |           0      0.00%    100.00% |           0      0.00%    100.00% |           0      0.00%    100.00% |           0      0.00%    100.00% (Unspecified)
board.cache_hierarchy.ruby_system.L1Cache_Controller.LLSC_Data_all_Acks::total            6                       (Unspecified)
board.cache_hierarchy.ruby_system.L1Cache_Controller.LLSC_Timeout |         128    100.00%    100.00% |           0      0.00%    100.00% |           0      0.00%    100.00% |           0      0.00%    100.00% |           0      0.00%    100.00% |           0      0.00%    100.00% |           0      0.00%    100.00% |           0      0.00%    100.00% |           0      0.00%    100.00% |           0      0.00%    100.00% |           0      0.00%    100.00% |           0      0.00%    100.00% |           0      0.00%    100.00% |           0      0.00%    100.00% |           0      0.00%    100.00% |           0      0.00%    100.00% (Unspecified)
board.cache_hierarchy.ruby_system.L1Cache_Controller.LLSC_Timeout::total          128                       (Unspecified)
board.cache_hierarchy.ruby_system.L1Cache_Controller.NP.Load |       17262      6.84%      6.84% |       15671      6.21%     13.05% |       15669      6.21%     19.26% |       15671      6.21%     25.47% |       15669      6.21%     31.68% |       15671      6.21%     37.89% |       15669      6.21%     44.10% |       15671      6.21%     50.32% |       15669      6.21%     56.53% |       15671      6.21%     62.74% |       15669      6.21%     68.95% |       15671      6.21%     75.16% |       15669      6.21%     81.37% |       15671      6.21%     87.58% |       15671      6.21%     93.79% |       15669      6.21%    100.00% (Unspecified)
board.cache_hierarchy.ruby_system.L1Cache_Controller.NP.Load::total       252313                       (Unspecified)
board.cache_hierarchy.ruby_system.L1Cache_Controller.NP.Ifetch |        1263     36.14%     36.14% |         149      4.26%     40.40% |         148      4.23%     44.64% |         148      4.23%     48.87% |         148      4.23%     53.10% |         148      4.23%     57.34% |         148      4.23%     61.57% |         148      4.23%     65.81% |         148      4.23%     70.04% |         148      4.23%     74.28% |         148      4.23%     78.51% |         148      4.23%     82.75% |         148      4.23%     86.98% |         148      4.23%     91.22% |         154      4.41%     95.62% |         153      4.38%    100.00% (Unspecified)
board.cache_hierarchy.ruby_system.L1Cache_Controller.NP.Ifetch::total         3495                       (Unspecified)
board.cache_hierarchy.ruby_system.L1Cache_Controller.NP.Store |      383396     76.52%     76.52% |        7845      1.57%     78.08% |        7844      1.57%     79.65% |        7845      1.57%     81.21% |        7844      1.57%     82.78% |        7845      1.57%     84.34% |        7844      1.57%     85.91% |        7845      1.57%     87.48% |        7844      1.57%     89.04% |        7845      1.57%     90.61% |        7844      1.57%     92.17% |        7845      1.57%     93.74% |        7844      1.57%     95.30% |        7845      1.57%     96.87% |        7844      1.57%     98.43% |        7845      1.57%    100.00% (Unspecified)
board.cache_hierarchy.ruby_system.L1Cache_Controller.NP.Store::total       501064                       (Unspecified)
board.cache_hierarchy.ruby_system.L1Cache_Controller.NP.Inv |         197     96.57%     96.57% |           0      0.00%     96.57% |           1      0.49%     97.06% |           2      0.98%     98.04% |           2      0.98%     99.02% |           1      0.49%     99.51% |           0      0.00%     99.51% |           0      0.00%     99.51% |           0      0.00%     99.51% |           0      0.00%     99.51% |           0      0.00%     99.51% |           0      0.00%     99.51% |           0      0.00%     99.51% |           0      0.00%     99.51% |           0      0.00%     99.51% |           1      0.49%    100.00% (Unspecified)
board.cache_hierarchy.ruby_system.L1Cache_Controller.NP.Inv::total          204                       (Unspecified)
board.cache_hierarchy.ruby_system.L1Cache_Controller.NP.Load_Linked |           6    100.00%    100.00% |           0      0.00%    100.00% |           0      0.00%    100.00% |           0      0.00%    100.00% |           0      0.00%    100.00% |           0      0.00%    100.00% |           0      0.00%    100.00% |           0      0.00%    100.00% |           0      0.00%    100.00% |           0      0.00%    100.00% |           0      0.00%    100.00% |           0      0.00%    100.00% |           0      0.00%    100.00% |           0      0.00%    100.00% |           0      0.00%    100.00% |           0      0.00%    100.00% (Unspecified)
board.cache_hierarchy.ruby_system.L1Cache_Controller.NP.Load_Linked::total            6                       (Unspecified)
board.cache_hierarchy.ruby_system.L1Cache_Controller.I.Load |         274      7.79%      7.79% |         209      5.94%     13.73% |         184      5.23%     18.97% |         183      5.20%     24.17% |         185      5.26%     29.43% |         209      5.94%     35.37% |         242      6.88%     42.25% |         244      6.94%     49.19% |         207      5.89%     55.08% |         208      5.91%     60.99% |         242      6.88%     67.87% |         240      6.82%     74.69% |         208      5.91%     80.61% |         204      5.80%     86.41% |         236      6.71%     93.12% |         242      6.88%    100.00% (Unspecified)
board.cache_hierarchy.ruby_system.L1Cache_Controller.I.Load::total         3517                       (Unspecified)
board.cache_hierarchy.ruby_system.L1Cache_Controller.I.Ifetch |         923     13.81%     13.81% |         380      5.68%     19.49% |         383      5.73%     25.22% |         382      5.71%     30.93% |         385      5.76%     36.69% |         385      5.76%     42.45% |         383      5.73%     48.18% |         385      5.76%     53.94% |         385      5.76%     59.70% |         385      5.76%     65.46% |         385      5.76%     71.22% |         385      5.76%     76.98% |         385      5.76%     82.74% |         385      5.76%     88.50% |         385      5.76%     94.26% |         384      5.74%    100.00% (Unspecified)
board.cache_hierarchy.ruby_system.L1Cache_Controller.I.Ifetch::total         6685                       (Unspecified)
board.cache_hierarchy.ruby_system.L1Cache_Controller.I.Store |           6     13.33%     13.33% |           4      8.89%     22.22% |           0      0.00%     22.22% |           2      4.44%     26.67% |           1      2.22%     28.89% |           1      2.22%     31.11% |           2      4.44%     35.56% |           1      2.22%     37.78% |           3      6.67%     44.44% |           2      4.44%     48.89% |           2      4.44%     53.33% |           5     11.11%     64.44% |           2      4.44%     68.89% |           6     13.33%     82.22% |           7     15.56%     97.78% |           1      2.22%    100.00% (Unspecified)
board.cache_hierarchy.ruby_system.L1Cache_Controller.I.Store::total           45                       (Unspecified)
board.cache_hierarchy.ruby_system.L1Cache_Controller.I.L1_Replacement |       23745      6.52%      6.52% |       22697      6.23%     12.75% |       22732      6.24%     18.99% |       22700      6.23%     25.22% |       22688      6.23%     31.45% |       22698      6.23%     37.68% |       22699      6.23%     43.91% |       22717      6.24%     50.15% |       22691      6.23%     56.38% |       22696      6.23%     62.61% |       22699      6.23%     68.84% |       22733      6.24%     75.08% |       22699      6.23%     81.31% |       22672      6.22%     87.54% |       22709      6.23%     93.77% |       22691      6.23%    100.00% (Unspecified)
board.cache_hierarchy.ruby_system.L1Cache_Controller.I.L1_Replacement::total       364266                       (Unspecified)
board.cache_hierarchy.ruby_system.L1Cache_Controller.S.Load |        4620      3.92%      3.92% |       10799      9.16%     13.08% |        8642      7.33%     20.41% |        9445      8.01%     28.42% |        8651      7.34%     35.75% |        8838      7.50%     43.25% |        9767      8.28%     51.53% |        8455      7.17%     58.70% |        8061      6.84%     65.54% |        7573      6.42%     71.96% |        6132      5.20%     77.16% |        7065      5.99%     83.15% |        5846      4.96%     88.11% |        4784      4.06%     92.17% |        4503      3.82%     95.98% |        4735      4.02%    100.00% (Unspecified)
board.cache_hierarchy.ruby_system.L1Cache_Controller.S.Load::total       117916                       (Unspecified)
board.cache_hierarchy.ruby_system.L1Cache_Controller.S.Ifetch |    12434486     71.85%     71.85% |      357440      2.07%     73.91% |      335711      1.94%     75.85% |      343736      1.99%     77.84% |      335801      1.94%     79.78% |      337679      1.95%     81.73% |      346959      2.00%     83.73% |      333846      1.93%     85.66% |      329899      1.91%     87.57% |      325024      1.88%     89.45% |      310614      1.79%     91.24% |      319942      1.85%     93.09% |      307752      1.78%     94.87% |      297129      1.72%     96.59% |      294333      1.70%     98.29% |      296641      1.71%    100.00% (Unspecified)
board.cache_hierarchy.ruby_system.L1Cache_Controller.S.Ifetch::total     17306992                       (Unspecified)
board.cache_hierarchy.ruby_system.L1Cache_Controller.S.Store |          15     31.91%     31.91% |           2      4.26%     36.17% |           2      4.26%     40.43% |           2      4.26%     44.68% |           2      4.26%     48.94% |           2      4.26%     53.19% |           2      4.26%     57.45% |           2      4.26%     61.70% |           2      4.26%     65.96% |           2      4.26%     70.21% |           2      4.26%     74.47% |           2      4.26%     78.72% |           2      4.26%     82.98% |           2      4.26%     87.23% |           3      6.38%     93.62% |           3      6.38%    100.00% (Unspecified)
board.cache_hierarchy.ruby_system.L1Cache_Controller.S.Store::total           47                       (Unspecified)
board.cache_hierarchy.ruby_system.L1Cache_Controller.S.Inv |        1647     17.16%     17.16% |         529      5.51%     22.67% |         528      5.50%     28.17% |         528      5.50%     33.67% |         529      5.51%     39.19% |         530      5.52%     44.71% |         531      5.53%     50.24% |         531      5.53%     55.77% |         531      5.53%     61.30% |         531      5.53%     66.84% |         531      5.53%     72.37% |         531      5.53%     77.90% |         531      5.53%     83.43% |         531      5.53%     88.97% |         530      5.52%     94.49% |         529      5.51%    100.00% (Unspecified)
board.cache_hierarchy.ruby_system.L1Cache_Controller.S.Inv::total         9598                       (Unspecified)
board.cache_hierarchy.ruby_system.L1Cache_Controller.S.L1_Replacement |         283     97.59%     97.59% |           0      0.00%     97.59% |           1      0.34%     97.93% |           2      0.69%     98.62% |           2      0.69%     99.31% |           1      0.34%     99.66% |           0      0.00%     99.66% |           0      0.00%     99.66% |           0      0.00%     99.66% |           0      0.00%     99.66% |           0      0.00%     99.66% |           0      0.00%     99.66% |           0      0.00%     99.66% |           0      0.00%     99.66% |           0      0.00%     99.66% |           1      0.34%    100.00% (Unspecified)
board.cache_hierarchy.ruby_system.L1Cache_Controller.S.L1_Replacement::total          290                       (Unspecified)
board.cache_hierarchy.ruby_system.L1Cache_Controller.E.Load |     3074360     40.96%     40.96% |      295531      3.94%     44.90% |      295249      3.93%     48.84% |      295594      3.94%     52.77% |      295744      3.94%     56.72% |      295433      3.94%     60.65% |      295211      3.93%     64.59% |      295278      3.93%     68.52% |      295016      3.93%     72.45% |      295818      3.94%     76.39% |      295177      3.93%     80.32% |      295357      3.94%     84.26% |      295099      3.93%     88.19% |      295562      3.94%     92.13% |      295261      3.93%     96.06% |      295336      3.94%    100.00% (Unspecified)
board.cache_hierarchy.ruby_system.L1Cache_Controller.E.Load::total      7505026                       (Unspecified)
board.cache_hierarchy.ruby_system.L1Cache_Controller.E.Store |         245     13.23%     13.23% |         104      5.62%     18.84% |          92      4.97%     23.81% |          90      4.86%     28.67% |          93      5.02%     33.69% |         105      5.67%     39.36% |         120      6.48%     45.84% |         122      6.59%     52.43% |         102      5.51%     57.94% |         103      5.56%     63.50% |         120      6.48%     69.98% |         118      6.37%     76.35% |         103      5.56%     81.91% |          99      5.35%     87.26% |         115      6.21%     93.47% |         121      6.53%    100.00% (Unspecified)
board.cache_hierarchy.ruby_system.L1Cache_Controller.E.Store::total         1852                       (Unspecified)
board.cache_hierarchy.ruby_system.L1Cache_Controller.E.Inv |       15531      6.34%      6.34% |       15385      6.28%     12.63% |       15311      6.25%     18.88% |       15302      6.25%     25.13% |       15252      6.23%     31.36% |       15302      6.25%     37.61% |       15376      6.28%     43.90% |       15332      6.26%     50.16% |       15297      6.25%     56.41% |       15287      6.24%     62.65% |       15270      6.24%     68.89% |       15365      6.28%     75.17% |       15219      6.22%     81.38% |       15153      6.19%     87.57% |       15217      6.22%     93.79% |       15208      6.21%    100.00% (Unspecified)
board.cache_hierarchy.ruby_system.L1Cache_Controller.E.Inv::total       244807                       (Unspecified)
board.cache_hierarchy.ruby_system.L1Cache_Controller.E.L1_Replacement |        1662     27.00%     27.00% |         307      4.99%     31.99% |         266      4.32%     36.31% |         299      4.86%     41.16% |         311      5.05%     46.22% |         304      4.94%     51.15% |         300      4.87%     56.03% |         285      4.63%     60.66% |         310      5.04%     65.69% |         308      5.00%     70.70% |         301      4.89%     75.58% |         270      4.39%     79.97% |         300      4.87%     84.84% |         330      5.36%     90.20% |         293      4.76%     94.96% |         310      5.04%    100.00% (Unspecified)
board.cache_hierarchy.ruby_system.L1Cache_Controller.E.L1_Replacement::total         6156                       (Unspecified)
board.cache_hierarchy.ruby_system.L1Cache_Controller.E.Fwd_GETS |          11     52.38%     52.38% |           9     42.86%     95.24% |           0      0.00%     95.24% |           0      0.00%     95.24% |           0      0.00%     95.24% |           0      0.00%     95.24% |           0      0.00%     95.24% |           0      0.00%     95.24% |           0      0.00%     95.24% |           0      0.00%     95.24% |           0      0.00%     95.24% |           0      0.00%     95.24% |           0      0.00%     95.24% |           0      0.00%     95.24% |           1      4.76%    100.00% |           0      0.00%    100.00% (Unspecified)
board.cache_hierarchy.ruby_system.L1Cache_Controller.E.Fwd_GETS::total           21                       (Unspecified)
board.cache_hierarchy.ruby_system.L1Cache_Controller.E.Load_Linked |           9    100.00%    100.00% |           0      0.00%    100.00% |           0      0.00%    100.00% |           0      0.00%    100.00% |           0      0.00%    100.00% |           0      0.00%    100.00% |           0      0.00%    100.00% |           0      0.00%    100.00% |           0      0.00%    100.00% |           0      0.00%    100.00% |           0      0.00%    100.00% |           0      0.00%    100.00% |           0      0.00%    100.00% |           0      0.00%    100.00% |           0      0.00%    100.00% |           0      0.00%    100.00% (Unspecified)
board.cache_hierarchy.ruby_system.L1Cache_Controller.E.Load_Linked::total            9                       (Unspecified)
board.cache_hierarchy.ruby_system.L1Cache_Controller.M.Load |    12535958     74.79%     74.79% |      294552      1.76%     76.55% |      286154      1.71%     78.26% |      289034      1.72%     79.98% |      285677      1.70%     81.69% |      286722      1.71%     83.40% |      290623      1.73%     85.13% |      285310      1.70%     86.83% |      284043      1.69%     88.53% |      281290      1.68%     90.21% |      276136      1.65%     91.86% |      279674      1.67%     93.52% |      275104      1.64%     95.17% |      270367      1.61%     96.78% |      269540      1.61%     98.39% |      270384      1.61%    100.00% (Unspecified)
board.cache_hierarchy.ruby_system.L1Cache_Controller.M.Load::total     16760568                       (Unspecified)
board.cache_hierarchy.ruby_system.L1Cache_Controller.M.Store |     5385647     74.26%     74.26% |      130994      1.81%     76.06% |      126661      1.75%     77.81% |      128267      1.77%     79.58% |      126675      1.75%     81.33% |      127040      1.75%     83.08% |      128882      1.78%     84.85% |      126252      1.74%     86.59% |      125487      1.73%     88.32% |      124511      1.72%     90.04% |      121607      1.68%     91.72% |      123477      1.70%     93.42% |      121060      1.67%     95.09% |      118930      1.64%     96.73% |      118359      1.63%     98.36% |      118812      1.64%    100.00% (Unspecified)
board.cache_hierarchy.ruby_system.L1Cache_Controller.M.Store::total      7252661                       (Unspecified)
board.cache_hierarchy.ruby_system.L1Cache_Controller.M.Inv |        8216      6.51%      6.51% |        7934      6.28%     12.79% |        7834      6.20%     18.99% |        7893      6.25%     25.24% |        7838      6.21%     31.45% |        7870      6.23%     37.68% |        7941      6.29%     43.97% |        7919      6.27%     50.24% |        7888      6.25%     56.48% |        7862      6.23%     62.71% |        7868      6.23%     68.94% |        7911      6.26%     75.20% |        7824      6.20%     81.40% |        7805      6.18%     87.58% |        7829      6.20%     93.78% |        7856      6.22%    100.00% (Unspecified)
board.cache_hierarchy.ruby_system.L1Cache_Controller.M.Inv::total       126288                       (Unspecified)
board.cache_hierarchy.ruby_system.L1Cache_Controller.M.L1_Replacement |      375214    100.00%    100.00% |           0      0.00%    100.00% |           2      0.00%    100.00% |           3      0.00%    100.00% |           0      0.00%    100.00% |           1      0.00%    100.00% |           2      0.00%    100.00% |           2      0.00%    100.00% |           0      0.00%    100.00% |           0      0.00%    100.00% |           1      0.00%    100.00% |           1      0.00%    100.00% |           2      0.00%    100.00% |           2      0.00%    100.00% |           1      0.00%    100.00% |           0      0.00%    100.00% (Unspecified)
board.cache_hierarchy.ruby_system.L1Cache_Controller.M.L1_Replacement::total       375231                       (Unspecified)
board.cache_hierarchy.ruby_system.L1Cache_Controller.M.Fwd_GETX |          65     49.24%     49.24% |           4      3.03%     52.27% |           5      3.79%     56.06% |           5      3.79%     59.85% |           5      3.79%     63.64% |           4      3.03%     66.67% |           5      3.79%     70.45% |           4      3.03%     73.48% |           5      3.79%     77.27% |           5      3.79%     81.06% |           5      3.79%     84.85% |           5      3.79%     88.64% |           5      3.79%     92.42% |           4      3.03%     95.45% |           4      3.03%     98.48% |           2      1.52%    100.00% (Unspecified)
board.cache_hierarchy.ruby_system.L1Cache_Controller.M.Fwd_GETX::total          132                       (Unspecified)
board.cache_hierarchy.ruby_system.L1Cache_Controller.M.Fwd_GETS |         113     97.41%     97.41% |           0      0.00%     97.41% |           0      0.00%     97.41% |           0      0.00%     97.41% |           0      0.00%     97.41% |           0      0.00%     97.41% |           0      0.00%     97.41% |           0      0.00%     97.41% |           0      0.00%     97.41% |           0      0.00%     97.41% |           0      0.00%     97.41% |           0      0.00%     97.41% |           0      0.00%     97.41% |           0      0.00%     97.41% |           2      1.72%     99.14% |           1      0.86%    100.00% (Unspecified)
board.cache_hierarchy.ruby_system.L1Cache_Controller.M.Fwd_GETS::total          116                       (Unspecified)
board.cache_hierarchy.ruby_system.L1Cache_Controller.M.Load_Linked |         113    100.00%    100.00% |           0      0.00%    100.00% |           0      0.00%    100.00% |           0      0.00%    100.00% |           0      0.00%    100.00% |           0      0.00%    100.00% |           0      0.00%    100.00% |           0      0.00%    100.00% |           0      0.00%    100.00% |           0      0.00%    100.00% |           0      0.00%    100.00% |           0      0.00%    100.00% |           0      0.00%    100.00% |           0      0.00%    100.00% |           0      0.00%    100.00% |           0      0.00%    100.00% (Unspecified)
board.cache_hierarchy.ruby_system.L1Cache_Controller.M.Load_Linked::total          113                       (Unspecified)
board.cache_hierarchy.ruby_system.L1Cache_Controller.IS.Data_Exclusive |       17531      6.87%      6.87% |       15847      6.21%     13.08% |       15811      6.20%     19.27% |       15812      6.20%     25.47% |       15812      6.20%     31.67% |       15838      6.21%     37.87% |       15869      6.22%     44.09% |       15873      6.22%     50.31% |       15834      6.20%     56.51% |       15837      6.21%     62.72% |       15869      6.22%     68.94% |       15869      6.22%     75.15% |       15835      6.20%     81.36% |       15833      6.20%     87.56% |       15867      6.22%     93.78% |       15873      6.22%    100.00% (Unspecified)
board.cache_hierarchy.ruby_system.L1Cache_Controller.IS.Data_Exclusive::total       255210                       (Unspecified)
board.cache_hierarchy.ruby_system.L1Cache_Controller.IS.DataS_fromL1 |           1      0.73%      0.73% |          17     12.41%     13.14% |          17     12.41%     25.55% |          13      9.49%     35.04% |           7      5.11%     40.15% |           7      5.11%     45.26% |           7      5.11%     50.36% |           7      5.11%     55.47% |           7      5.11%     60.58% |           7      5.11%     65.69% |           7      5.11%     70.80% |           9      6.57%     77.37% |           7      5.11%     82.48% |           9      6.57%     89.05% |           8      5.84%     94.89% |           7      5.11%    100.00% (Unspecified)
board.cache_hierarchy.ruby_system.L1Cache_Controller.IS.DataS_fromL1::total          137                       (Unspecified)
board.cache_hierarchy.ruby_system.L1Cache_Controller.IS.Data_all_Acks |        2189     20.53%     20.53% |         545      5.11%     25.64% |         556      5.21%     30.86% |         559      5.24%     36.10% |         568      5.33%     41.43% |         568      5.33%     46.75% |         566      5.31%     52.06% |         568      5.33%     57.39% |         568      5.33%     62.72% |         568      5.33%     68.05% |         568      5.33%     73.37% |         566      5.31%     78.68% |         568      5.33%     84.01% |         566      5.31%     89.32% |         571      5.36%     94.67% |         568      5.33%    100.00% (Unspecified)
board.cache_hierarchy.ruby_system.L1Cache_Controller.IS.Data_all_Acks::total        10662                       (Unspecified)
board.cache_hierarchy.ruby_system.L1Cache_Controller.IM.Data_all_Acks |      383402     76.51%     76.51% |        7849      1.57%     78.08% |        7844      1.57%     79.64% |        7847      1.57%     81.21% |        7845      1.57%     82.77% |        7846      1.57%     84.34% |        7846      1.57%     85.91% |        7846      1.57%     87.47% |        7847      1.57%     89.04% |        7847      1.57%     90.60% |        7846      1.57%     92.17% |        7850      1.57%     93.74% |        7846      1.57%     95.30% |        7851      1.57%     96.87% |        7851      1.57%     98.43% |        7846      1.57%    100.00% (Unspecified)
board.cache_hierarchy.ruby_system.L1Cache_Controller.IM.Data_all_Acks::total       501109                       (Unspecified)
board.cache_hierarchy.ruby_system.L1Cache_Controller.IM.LLSC_Data_all_Acks |           6    100.00%    100.00% |           0      0.00%    100.00% |           0      0.00%    100.00% |           0      0.00%    100.00% |           0      0.00%    100.00% |           0      0.00%    100.00% |           0      0.00%    100.00% |           0      0.00%    100.00% |           0      0.00%    100.00% |           0      0.00%    100.00% |           0      0.00%    100.00% |           0      0.00%    100.00% |           0      0.00%    100.00% |           0      0.00%    100.00% |           0      0.00%    100.00% |           0      0.00%    100.00% (Unspecified)
board.cache_hierarchy.ruby_system.L1Cache_Controller.IM.LLSC_Data_all_Acks::total            6                       (Unspecified)
board.cache_hierarchy.ruby_system.L1Cache_Controller.SM.Ack |          15     20.00%     20.00% |           2      2.67%     22.67% |           2      2.67%     25.33% |           2      2.67%     28.00% |           2      2.67%     30.67% |           2      2.67%     33.33% |           2      2.67%     36.00% |           2      2.67%     38.67% |           2      2.67%     41.33% |           2      2.67%     44.00% |           2      2.67%     46.67% |           2      2.67%     49.33% |           2      2.67%     52.00% |           2      2.67%     54.67% |          17     22.67%     77.33% |          17     22.67%    100.00% (Unspecified)
board.cache_hierarchy.ruby_system.L1Cache_Controller.SM.Ack::total           75                       (Unspecified)
board.cache_hierarchy.ruby_system.L1Cache_Controller.SM.Ack_all |          15     31.91%     31.91% |           2      4.26%     36.17% |           2      4.26%     40.43% |           2      4.26%     44.68% |           2      4.26%     48.94% |           2      4.26%     53.19% |           2      4.26%     57.45% |           2      4.26%     61.70% |           2      4.26%     65.96% |           2      4.26%     70.21% |           2      4.26%     74.47% |           2      4.26%     78.72% |           2      4.26%     82.98% |           2      4.26%     87.23% |           3      6.38%     93.62% |           3      6.38%    100.00% (Unspecified)
board.cache_hierarchy.ruby_system.L1Cache_Controller.SM.Ack_all::total           47                       (Unspecified)
board.cache_hierarchy.ruby_system.L1Cache_Controller.M_I.Ifetch |           1    100.00%    100.00% |           0      0.00%    100.00% |           0      0.00%    100.00% |           0      0.00%    100.00% |           0      0.00%    100.00% |           0      0.00%    100.00% |           0      0.00%    100.00% |           0      0.00%    100.00% |           0      0.00%    100.00% |           0      0.00%    100.00% |           0      0.00%    100.00% |           0      0.00%    100.00% |           0      0.00%    100.00% |           0      0.00%    100.00% |           0      0.00%    100.00% |           0      0.00%    100.00% (Unspecified)
board.cache_hierarchy.ruby_system.L1Cache_Controller.M_I.Ifetch::total            1                       (Unspecified)
board.cache_hierarchy.ruby_system.L1Cache_Controller.M_I.Inv |           0      0.00%      0.00% |           0      0.00%      0.00% |           0      0.00%      0.00% |           1     20.00%     20.00% |           1     20.00%     40.00% |           0      0.00%     40.00% |           0      0.00%     40.00% |           0      0.00%     40.00% |           0      0.00%     40.00% |           0      0.00%     40.00% |           1     20.00%     60.00% |           1     20.00%     80.00% |           0      0.00%     80.00% |           1     20.00%    100.00% |           0      0.00%    100.00% |           0      0.00%    100.00% (Unspecified)
board.cache_hierarchy.ruby_system.L1Cache_Controller.M_I.Inv::total            5                       (Unspecified)
board.cache_hierarchy.ruby_system.L1Cache_Controller.M_I.WB_Ack |      376876     98.82%     98.82% |         307      0.08%     98.90% |         268      0.07%     98.97% |         301      0.08%     99.05% |         310      0.08%     99.13% |         305      0.08%     99.21% |         302      0.08%     99.29% |         287      0.08%     99.36% |         310      0.08%     99.45% |         308      0.08%     99.53% |         301      0.08%     99.60% |         270      0.07%     99.68% |         302      0.08%     99.75% |         331      0.09%     99.84% |         294      0.08%     99.92% |         310      0.08%    100.00% (Unspecified)
board.cache_hierarchy.ruby_system.L1Cache_Controller.M_I.WB_Ack::total       381382                       (Unspecified)
board.cache_hierarchy.ruby_system.L1Cache_Controller.SINK_WB_ACK.WB_Ack |           0      0.00%      0.00% |           0      0.00%      0.00% |           0      0.00%      0.00% |           1     20.00%     20.00% |           1     20.00%     40.00% |           0      0.00%     40.00% |           0      0.00%     40.00% |           0      0.00%     40.00% |           0      0.00%     40.00% |           0      0.00%     40.00% |           1     20.00%     60.00% |           1     20.00%     80.00% |           0      0.00%     80.00% |           1     20.00%    100.00% |           0      0.00%    100.00% |           0      0.00%    100.00% (Unspecified)
board.cache_hierarchy.ruby_system.L1Cache_Controller.SINK_WB_ACK.WB_Ack::total            5                       (Unspecified)
board.cache_hierarchy.ruby_system.L1Cache_Controller.LLSC_E.Store |          15    100.00%    100.00% |           0      0.00%    100.00% |           0      0.00%    100.00% |           0      0.00%    100.00% |           0      0.00%    100.00% |           0      0.00%    100.00% |           0      0.00%    100.00% |           0      0.00%    100.00% |           0      0.00%    100.00% |           0      0.00%    100.00% |           0      0.00%    100.00% |           0      0.00%    100.00% |           0      0.00%    100.00% |           0      0.00%    100.00% |           0      0.00%    100.00% |           0      0.00%    100.00% (Unspecified)
board.cache_hierarchy.ruby_system.L1Cache_Controller.LLSC_E.Store::total           15                       (Unspecified)
board.cache_hierarchy.ruby_system.L1Cache_Controller.LLSC_M.Load |          22    100.00%    100.00% |           0      0.00%    100.00% |           0      0.00%    100.00% |           0      0.00%    100.00% |           0      0.00%    100.00% |           0      0.00%    100.00% |           0      0.00%    100.00% |           0      0.00%    100.00% |           0      0.00%    100.00% |           0      0.00%    100.00% |           0      0.00%    100.00% |           0      0.00%    100.00% |           0      0.00%    100.00% |           0      0.00%    100.00% |           0      0.00%    100.00% |           0      0.00%    100.00% (Unspecified)
board.cache_hierarchy.ruby_system.L1Cache_Controller.LLSC_M.Load::total           22                       (Unspecified)
board.cache_hierarchy.ruby_system.L1Cache_Controller.LLSC_M.Store |         123    100.00%    100.00% |           0      0.00%    100.00% |           0      0.00%    100.00% |           0      0.00%    100.00% |           0      0.00%    100.00% |           0      0.00%    100.00% |           0      0.00%    100.00% |           0      0.00%    100.00% |           0      0.00%    100.00% |           0      0.00%    100.00% |           0      0.00%    100.00% |           0      0.00%    100.00% |           0      0.00%    100.00% |           0      0.00%    100.00% |           0      0.00%    100.00% |           0      0.00%    100.00% (Unspecified)
board.cache_hierarchy.ruby_system.L1Cache_Controller.LLSC_M.Store::total          123                       (Unspecified)
board.cache_hierarchy.ruby_system.L1Cache_Controller.LLSC_M.LLSC_Timeout |         128    100.00%    100.00% |           0      0.00%    100.00% |           0      0.00%    100.00% |           0      0.00%    100.00% |           0      0.00%    100.00% |           0      0.00%    100.00% |           0      0.00%    100.00% |           0      0.00%    100.00% |           0      0.00%    100.00% |           0      0.00%    100.00% |           0      0.00%    100.00% |           0      0.00%    100.00% |           0      0.00%    100.00% |           0      0.00%    100.00% |           0      0.00%    100.00% |           0      0.00%    100.00% (Unspecified)
board.cache_hierarchy.ruby_system.L1Cache_Controller.LLSC_M.LLSC_Timeout::total          128                       (Unspecified)
board.cache_hierarchy.ruby_system.L2Cache_Controller.L1_GET_INSTR        11126      0.00%      0.00% (Unspecified)
board.cache_hierarchy.ruby_system.L2Cache_Controller.L1_GETS       256792      0.00%      0.00% (Unspecified)
board.cache_hierarchy.ruby_system.L2Cache_Controller.L1_GETX       501269      0.00%      0.00% (Unspecified)
board.cache_hierarchy.ruby_system.L2Cache_Controller.L1_UPGRADE           47      0.00%      0.00% (Unspecified)
board.cache_hierarchy.ruby_system.L2Cache_Controller.L1_PUTX       381382      0.00%      0.00% (Unspecified)
board.cache_hierarchy.ruby_system.L2Cache_Controller.L1_PUTX_old           10      0.00%      0.00% (Unspecified)
board.cache_hierarchy.ruby_system.L2Cache_Controller.L2_Replacement       375321      0.00%      0.00% (Unspecified)
board.cache_hierarchy.ruby_system.L2Cache_Controller.L2_Replacement_clean       378997      0.00%      0.00% (Unspecified)
board.cache_hierarchy.ruby_system.L2Cache_Controller.Mem_Data       758414      0.00%      0.00% (Unspecified)
board.cache_hierarchy.ruby_system.L2Cache_Controller.Mem_Ack       754318      0.00%      0.00% (Unspecified)
board.cache_hierarchy.ruby_system.L2Cache_Controller.WB_Data       126404      0.00%      0.00% (Unspecified)
board.cache_hierarchy.ruby_system.L2Cache_Controller.WB_Data_clean           26      0.00%      0.00% (Unspecified)
board.cache_hierarchy.ruby_system.L2Cache_Controller.Ack         7812      0.00%      0.00% (Unspecified)
board.cache_hierarchy.ruby_system.L2Cache_Controller.Ack_all       246722      0.00%      0.00% (Unspecified)
board.cache_hierarchy.ruby_system.L2Cache_Controller.Unblock          137      0.00%      0.00% (Unspecified)
board.cache_hierarchy.ruby_system.L2Cache_Controller.Exclusive_Unblock       756372      0.00%      0.00% (Unspecified)
board.cache_hierarchy.ruby_system.L2Cache_Controller.NP.L1_GET_INSTR         2273      0.00%      0.00% (Unspecified)
board.cache_hierarchy.ruby_system.L2Cache_Controller.NP.L1_GETS       255179      0.00%      0.00% (Unspecified)
board.cache_hierarchy.ruby_system.L2Cache_Controller.NP.L1_GETX       500962      0.00%      0.00% (Unspecified)
board.cache_hierarchy.ruby_system.L2Cache_Controller.NP.L1_PUTX_old            5      0.00%      0.00% (Unspecified)
board.cache_hierarchy.ruby_system.L2Cache_Controller.SS.L1_GET_INSTR         3815      0.00%      0.00% (Unspecified)
board.cache_hierarchy.ruby_system.L2Cache_Controller.SS.L1_GETS          460      0.00%      0.00% (Unspecified)
board.cache_hierarchy.ruby_system.L2Cache_Controller.SS.L1_UPGRADE           47      0.00%      0.00% (Unspecified)
board.cache_hierarchy.ruby_system.L2Cache_Controller.SS.L2_Replacement           69      0.00%      0.00% (Unspecified)
board.cache_hierarchy.ruby_system.L2Cache_Controller.SS.L2_Replacement_clean         1846      0.00%      0.00% (Unspecified)
board.cache_hierarchy.ruby_system.L2Cache_Controller.M.L1_GET_INSTR            1      0.00%      0.00% (Unspecified)
board.cache_hierarchy.ruby_system.L2Cache_Controller.M.L1_GETS           35      0.00%      0.00% (Unspecified)
board.cache_hierarchy.ruby_system.L2Cache_Controller.M.L1_GETX           21      0.00%      0.00% (Unspecified)
board.cache_hierarchy.ruby_system.L2Cache_Controller.M.L2_Replacement       375200      0.00%      0.00% (Unspecified)
board.cache_hierarchy.ruby_system.L2Cache_Controller.M.L2_Replacement_clean         6103      0.00%      0.00% (Unspecified)
board.cache_hierarchy.ruby_system.L2Cache_Controller.MT.L1_GETS          137      0.00%      0.00% (Unspecified)
board.cache_hierarchy.ruby_system.L2Cache_Controller.MT.L1_GETX          132      0.00%      0.00% (Unspecified)
board.cache_hierarchy.ruby_system.L2Cache_Controller.MT.L1_PUTX       381382      0.00%      0.00% (Unspecified)
board.cache_hierarchy.ruby_system.L2Cache_Controller.MT.L2_Replacement           52      0.00%      0.00% (Unspecified)
board.cache_hierarchy.ruby_system.L2Cache_Controller.MT.L2_Replacement_clean       371048      0.00%      0.00% (Unspecified)
board.cache_hierarchy.ruby_system.L2Cache_Controller.M_I.L1_GET_INSTR          945      0.00%      0.00% (Unspecified)
board.cache_hierarchy.ruby_system.L2Cache_Controller.M_I.L1_GETS          873      0.00%      0.00% (Unspecified)
board.cache_hierarchy.ruby_system.L2Cache_Controller.M_I.L1_GETX           42      0.00%      0.00% (Unspecified)
board.cache_hierarchy.ruby_system.L2Cache_Controller.M_I.Mem_Ack       754318      0.00%      0.00% (Unspecified)
board.cache_hierarchy.ruby_system.L2Cache_Controller.MT_I.WB_Data           51      0.00%      0.00% (Unspecified)
board.cache_hierarchy.ruby_system.L2Cache_Controller.MT_I.Ack_all            1      0.00%      0.00% (Unspecified)
board.cache_hierarchy.ruby_system.L2Cache_Controller.MCT_I.L1_PUTX_old            5      0.00%      0.00% (Unspecified)
board.cache_hierarchy.ruby_system.L2Cache_Controller.MCT_I.WB_Data       126237      0.00%      0.00% (Unspecified)
board.cache_hierarchy.ruby_system.L2Cache_Controller.MCT_I.WB_Data_clean            5      0.00%      0.00% (Unspecified)
board.cache_hierarchy.ruby_system.L2Cache_Controller.MCT_I.Ack_all       244806      0.00%      0.00% (Unspecified)
board.cache_hierarchy.ruby_system.L2Cache_Controller.I_I.L1_GET_INSTR            2      0.00%      0.00% (Unspecified)
board.cache_hierarchy.ruby_system.L2Cache_Controller.I_I.Ack         7618      0.00%      0.00% (Unspecified)
board.cache_hierarchy.ruby_system.L2Cache_Controller.I_I.Ack_all         1846      0.00%      0.00% (Unspecified)
board.cache_hierarchy.ruby_system.L2Cache_Controller.S_I.Ack          194      0.00%      0.00% (Unspecified)
board.cache_hierarchy.ruby_system.L2Cache_Controller.S_I.Ack_all           69      0.00%      0.00% (Unspecified)
board.cache_hierarchy.ruby_system.L2Cache_Controller.ISS.L1_GETS            4      0.00%      0.00% (Unspecified)
board.cache_hierarchy.ruby_system.L2Cache_Controller.ISS.Mem_Data       255175      0.00%      0.00% (Unspecified)
board.cache_hierarchy.ruby_system.L2Cache_Controller.IS.L1_GET_INSTR         4090      0.00%      0.00% (Unspecified)
board.cache_hierarchy.ruby_system.L2Cache_Controller.IS.L1_GETS           15      0.00%      0.00% (Unspecified)
board.cache_hierarchy.ruby_system.L2Cache_Controller.IS.Mem_Data         2277      0.00%      0.00% (Unspecified)
board.cache_hierarchy.ruby_system.L2Cache_Controller.IM.L1_GETX           14      0.00%      0.00% (Unspecified)
board.cache_hierarchy.ruby_system.L2Cache_Controller.IM.Mem_Data       500962      0.00%      0.00% (Unspecified)
board.cache_hierarchy.ruby_system.L2Cache_Controller.SS_MB.L1_GETS           17      0.00%      0.00% (Unspecified)
board.cache_hierarchy.ruby_system.L2Cache_Controller.SS_MB.Exclusive_Unblock           47      0.00%      0.00% (Unspecified)
board.cache_hierarchy.ruby_system.L2Cache_Controller.MT_MB.L1_GETS           12      0.00%      0.00% (Unspecified)
board.cache_hierarchy.ruby_system.L2Cache_Controller.MT_MB.L1_GETX           98      0.00%      0.00% (Unspecified)
board.cache_hierarchy.ruby_system.L2Cache_Controller.MT_MB.Exclusive_Unblock       756325      0.00%      0.00% (Unspecified)
board.cache_hierarchy.ruby_system.L2Cache_Controller.MT_IIB.L1_GETS           60      0.00%      0.00% (Unspecified)
board.cache_hierarchy.ruby_system.L2Cache_Controller.MT_IIB.WB_Data            3      0.00%      0.00% (Unspecified)
board.cache_hierarchy.ruby_system.L2Cache_Controller.MT_IIB.WB_Data_clean            1      0.00%      0.00% (Unspecified)
board.cache_hierarchy.ruby_system.L2Cache_Controller.MT_IIB.Unblock          133      0.00%      0.00% (Unspecified)
board.cache_hierarchy.ruby_system.L2Cache_Controller.MT_IB.WB_Data          113      0.00%      0.00% (Unspecified)
board.cache_hierarchy.ruby_system.L2Cache_Controller.MT_IB.WB_Data_clean           20      0.00%      0.00% (Unspecified)
board.cache_hierarchy.ruby_system.L2Cache_Controller.MT_SB.Unblock            4      0.00%      0.00% (Unspecified)
board.cache_hierarchy.ruby_system.RequestType.LD.latency_hist_seqr::bucket_size          256                       (Unspecified)
board.cache_hierarchy.ruby_system.RequestType.LD.latency_hist_seqr::max_bucket         2559                       (Unspecified)
board.cache_hierarchy.ruby_system.RequestType.LD.latency_hist_seqr::samples     24639362                       (Unspecified)
board.cache_hierarchy.ruby_system.RequestType.LD.latency_hist_seqr::mean     5.395548                       (Unspecified)
board.cache_hierarchy.ruby_system.RequestType.LD.latency_hist_seqr::gmean     1.064220                       (Unspecified)
board.cache_hierarchy.ruby_system.RequestType.LD.latency_hist_seqr::stdev    46.005232                       (Unspecified)
board.cache_hierarchy.ruby_system.RequestType.LD.latency_hist_seqr |    24387545     98.98%     98.98% |      199221      0.81%     99.79% |       46044      0.19%     99.97% |        1876      0.01%     99.98% |        2999      0.01%     99.99% |        1547      0.01%    100.00% |         129      0.00%    100.00% |           1      0.00%    100.00% |           0      0.00%    100.00% |           0      0.00%    100.00% (Unspecified)
board.cache_hierarchy.ruby_system.RequestType.LD.latency_hist_seqr::total     24639362                       (Unspecified)
board.cache_hierarchy.ruby_system.RequestType.LD.hit_latency_hist_seqr::bucket_size            1                       (Unspecified)
board.cache_hierarchy.ruby_system.RequestType.LD.hit_latency_hist_seqr::max_bucket            9                       (Unspecified)
board.cache_hierarchy.ruby_system.RequestType.LD.hit_latency_hist_seqr::samples     24383532                       (Unspecified)
board.cache_hierarchy.ruby_system.RequestType.LD.hit_latency_hist_seqr::mean     1.000000                       (Unspecified)
board.cache_hierarchy.ruby_system.RequestType.LD.hit_latency_hist_seqr::gmean     1.000000                       (Unspecified)
board.cache_hierarchy.ruby_system.RequestType.LD.hit_latency_hist_seqr::stdev     0.000203                       (Unspecified)
board.cache_hierarchy.ruby_system.RequestType.LD.hit_latency_hist_seqr |           0      0.00%      0.00% |    24383531    100.00%    100.00% |           1      0.00%    100.00% |           0      0.00%    100.00% |           0      0.00%    100.00% |           0      0.00%    100.00% |           0      0.00%    100.00% |           0      0.00%    100.00% |           0      0.00%    100.00% |           0      0.00%    100.00% (Unspecified)
board.cache_hierarchy.ruby_system.RequestType.LD.hit_latency_hist_seqr::total     24383532                       (Unspecified)
board.cache_hierarchy.ruby_system.RequestType.LD.miss_latency_hist_seqr::bucket_size          256                       (Unspecified)
board.cache_hierarchy.ruby_system.RequestType.LD.miss_latency_hist_seqr::max_bucket         2559                       (Unspecified)
board.cache_hierarchy.ruby_system.RequestType.LD.miss_latency_hist_seqr::samples       255830                       (Unspecified)
board.cache_hierarchy.ruby_system.RequestType.LD.miss_latency_hist_seqr::mean   424.341617                       (Unspecified)
board.cache_hierarchy.ruby_system.RequestType.LD.miss_latency_hist_seqr::gmean   401.269814                       (Unspecified)
board.cache_hierarchy.ruby_system.RequestType.LD.miss_latency_hist_seqr::stdev   162.739699                       (Unspecified)
board.cache_hierarchy.ruby_system.RequestType.LD.miss_latency_hist_seqr |        4013      1.57%      1.57% |      199221     77.87%     79.44% |       46044     18.00%     97.44% |        1876      0.73%     98.17% |        2999      1.17%     99.34% |        1547      0.60%     99.95% |         129      0.05%    100.00% |           1      0.00%    100.00% |           0      0.00%    100.00% |           0      0.00%    100.00% (Unspecified)
board.cache_hierarchy.ruby_system.RequestType.LD.miss_latency_hist_seqr::total       255830                       (Unspecified)
board.cache_hierarchy.ruby_system.RequestType.ST.latency_hist_seqr::bucket_size          256                       (Unspecified)
board.cache_hierarchy.ruby_system.RequestType.ST.latency_hist_seqr::max_bucket         2559                       (Unspecified)
board.cache_hierarchy.ruby_system.RequestType.ST.latency_hist_seqr::samples      7755679                       (Unspecified)
board.cache_hierarchy.ruby_system.RequestType.ST.latency_hist_seqr::mean    19.891108                       (Unspecified)
board.cache_hierarchy.ruby_system.RequestType.ST.latency_hist_seqr::gmean     1.483820                       (Unspecified)
board.cache_hierarchy.ruby_system.RequestType.ST.latency_hist_seqr::stdev    82.158309                       (Unspecified)
board.cache_hierarchy.ruby_system.RequestType.ST.latency_hist_seqr |     7601749     98.02%     98.02% |      103039      1.33%     99.34% |       42802      0.55%     99.90% |        4576      0.06%     99.95% |        2710      0.03%     99.99% |         671      0.01%    100.00% |         132      0.00%    100.00% |           0      0.00%    100.00% |           0      0.00%    100.00% |           0      0.00%    100.00% (Unspecified)
board.cache_hierarchy.ruby_system.RequestType.ST.latency_hist_seqr::total      7755679                       (Unspecified)
board.cache_hierarchy.ruby_system.RequestType.ST.hit_latency_hist_seqr::bucket_size           64                       (Unspecified)
board.cache_hierarchy.ruby_system.RequestType.ST.hit_latency_hist_seqr::max_bucket          639                       (Unspecified)
board.cache_hierarchy.ruby_system.RequestType.ST.hit_latency_hist_seqr::samples      7254523                       (Unspecified)
board.cache_hierarchy.ruby_system.RequestType.ST.hit_latency_hist_seqr::mean     1.053610                       (Unspecified)
board.cache_hierarchy.ruby_system.RequestType.ST.hit_latency_hist_seqr::gmean     1.036537                       (Unspecified)
board.cache_hierarchy.ruby_system.RequestType.ST.hit_latency_hist_seqr::stdev     0.656188                       (Unspecified)
board.cache_hierarchy.ruby_system.RequestType.ST.hit_latency_hist_seqr |     7254432    100.00%    100.00% |          80      0.00%    100.00% |           0      0.00%    100.00% |           0      0.00%    100.00% |           0      0.00%    100.00% |           9      0.00%    100.00% |           0      0.00%    100.00% |           2      0.00%    100.00% |           0      0.00%    100.00% |           0      0.00%    100.00% (Unspecified)
board.cache_hierarchy.ruby_system.RequestType.ST.hit_latency_hist_seqr::total      7254523                       (Unspecified)
board.cache_hierarchy.ruby_system.RequestType.ST.miss_latency_hist_seqr::bucket_size          256                       (Unspecified)
board.cache_hierarchy.ruby_system.RequestType.ST.miss_latency_hist_seqr::max_bucket         2559                       (Unspecified)
board.cache_hierarchy.ruby_system.RequestType.ST.miss_latency_hist_seqr::samples       501156                       (Unspecified)
board.cache_hierarchy.ruby_system.RequestType.ST.miss_latency_hist_seqr::mean   292.574785                       (Unspecified)
board.cache_hierarchy.ruby_system.RequestType.ST.miss_latency_hist_seqr::gmean   267.068273                       (Unspecified)
board.cache_hierarchy.ruby_system.RequestType.ST.miss_latency_hist_seqr::stdev   157.989566                       (Unspecified)
board.cache_hierarchy.ruby_system.RequestType.ST.miss_latency_hist_seqr |      347237     69.29%     69.29% |      103028     20.56%     89.85% |       42802      8.54%     98.39% |        4576      0.91%     99.30% |        2710      0.54%     99.84% |         671      0.13%     99.97% |         132      0.03%    100.00% |           0      0.00%    100.00% |           0      0.00%    100.00% |           0      0.00%    100.00% (Unspecified)
board.cache_hierarchy.ruby_system.RequestType.ST.miss_latency_hist_seqr::total       501156                       (Unspecified)
board.cache_hierarchy.ruby_system.RequestType.IFETCH.latency_hist_seqr::bucket_size          256                       (Unspecified)
board.cache_hierarchy.ruby_system.RequestType.IFETCH.latency_hist_seqr::max_bucket         2559                       (Unspecified)
board.cache_hierarchy.ruby_system.RequestType.IFETCH.latency_hist_seqr::samples     17317171                       (Unspecified)
board.cache_hierarchy.ruby_system.RequestType.IFETCH.latency_hist_seqr::mean     1.117097                       (Unspecified)
board.cache_hierarchy.ruby_system.RequestType.IFETCH.latency_hist_seqr::gmean     1.002882                       (Unspecified)
board.cache_hierarchy.ruby_system.RequestType.IFETCH.latency_hist_seqr::stdev     6.477182                       (Unspecified)
board.cache_hierarchy.ruby_system.RequestType.IFETCH.latency_hist_seqr |    17314229     99.98%     99.98% |        2292      0.01%    100.00% |         569      0.00%    100.00% |          37      0.00%    100.00% |          34      0.00%    100.00% |           7      0.00%    100.00% |           3      0.00%    100.00% |           0      0.00%    100.00% |           0      0.00%    100.00% |           0      0.00%    100.00% (Unspecified)
board.cache_hierarchy.ruby_system.RequestType.IFETCH.latency_hist_seqr::total     17317171                       (Unspecified)
board.cache_hierarchy.ruby_system.RequestType.IFETCH.hit_latency_hist_seqr::bucket_size            1                       (Unspecified)
board.cache_hierarchy.ruby_system.RequestType.IFETCH.hit_latency_hist_seqr::max_bucket            9                       (Unspecified)
board.cache_hierarchy.ruby_system.RequestType.IFETCH.hit_latency_hist_seqr::samples     17306992                       (Unspecified)
board.cache_hierarchy.ruby_system.RequestType.IFETCH.hit_latency_hist_seqr::mean            1                       (Unspecified)
board.cache_hierarchy.ruby_system.RequestType.IFETCH.hit_latency_hist_seqr::gmean            1                       (Unspecified)
board.cache_hierarchy.ruby_system.RequestType.IFETCH.hit_latency_hist_seqr |           0      0.00%      0.00% |    17306992    100.00%    100.00% |           0      0.00%    100.00% |           0      0.00%    100.00% |           0      0.00%    100.00% |           0      0.00%    100.00% |           0      0.00%    100.00% |           0      0.00%    100.00% |           0      0.00%    100.00% |           0      0.00%    100.00% (Unspecified)
board.cache_hierarchy.ruby_system.RequestType.IFETCH.hit_latency_hist_seqr::total     17306992                       (Unspecified)
board.cache_hierarchy.ruby_system.RequestType.IFETCH.miss_latency_hist_seqr::bucket_size          256                       (Unspecified)
board.cache_hierarchy.ruby_system.RequestType.IFETCH.miss_latency_hist_seqr::max_bucket         2559                       (Unspecified)
board.cache_hierarchy.ruby_system.RequestType.IFETCH.miss_latency_hist_seqr::samples        10179                       (Unspecified)
board.cache_hierarchy.ruby_system.RequestType.IFETCH.miss_latency_hist_seqr::mean   200.213479                       (Unspecified)
board.cache_hierarchy.ruby_system.RequestType.IFETCH.miss_latency_hist_seqr::gmean   133.680529                       (Unspecified)
board.cache_hierarchy.ruby_system.RequestType.IFETCH.miss_latency_hist_seqr::stdev   178.087316                       (Unspecified)
board.cache_hierarchy.ruby_system.RequestType.IFETCH.miss_latency_hist_seqr |        7237     71.10%     71.10% |        2292     22.52%     93.61% |         569      5.59%     99.20% |          37      0.36%     99.57% |          34      0.33%     99.90% |           7      0.07%     99.97% |           3      0.03%    100.00% |           0      0.00%    100.00% |           0      0.00%    100.00% |           0      0.00%    100.00% (Unspecified)
board.cache_hierarchy.ruby_system.RequestType.IFETCH.miss_latency_hist_seqr::total        10179                       (Unspecified)
board.cache_hierarchy.ruby_system.RequestType.Load_Linked.latency_hist_seqr::bucket_size           64                       (Unspecified)
board.cache_hierarchy.ruby_system.RequestType.Load_Linked.latency_hist_seqr::max_bucket          639                       (Unspecified)
board.cache_hierarchy.ruby_system.RequestType.Load_Linked.latency_hist_seqr::samples          128                       (Unspecified)
board.cache_hierarchy.ruby_system.RequestType.Load_Linked.latency_hist_seqr::mean    13.414062                       (Unspecified)
board.cache_hierarchy.ruby_system.RequestType.Load_Linked.latency_hist_seqr::gmean     1.296249                       (Unspecified)
board.cache_hierarchy.ruby_system.RequestType.Load_Linked.latency_hist_seqr::stdev    59.723052                       (Unspecified)
board.cache_hierarchy.ruby_system.RequestType.Load_Linked.latency_hist_seqr |         122     95.31%     95.31% |           0      0.00%     95.31% |           0      0.00%     95.31% |           4      3.12%     98.44% |           1      0.78%     99.22% |           0      0.00%     99.22% |           0      0.00%     99.22% |           1      0.78%    100.00% |           0      0.00%    100.00% |           0      0.00%    100.00% (Unspecified)
board.cache_hierarchy.ruby_system.RequestType.Load_Linked.latency_hist_seqr::total          128                       (Unspecified)
board.cache_hierarchy.ruby_system.RequestType.Load_Linked.hit_latency_hist_seqr::bucket_size            1                       (Unspecified)
board.cache_hierarchy.ruby_system.RequestType.Load_Linked.hit_latency_hist_seqr::max_bucket            9                       (Unspecified)
board.cache_hierarchy.ruby_system.RequestType.Load_Linked.hit_latency_hist_seqr::samples          122                       (Unspecified)
board.cache_hierarchy.ruby_system.RequestType.Load_Linked.hit_latency_hist_seqr::mean            1                       (Unspecified)
board.cache_hierarchy.ruby_system.RequestType.Load_Linked.hit_latency_hist_seqr::gmean            1                       (Unspecified)
[...]
board.processor.cores9.core.commitStats0.committedInstType::SimdDotProd            0      0.00%     45.61% # Class of committed instruction. (Count)
board.processor.cores9.core.commitStats0.committedInstType::Matrix            0      0.00%     45.61% # Class of committed instruction. (Count)
board.processor.cores9.core.commitStats0.committedInstType::MatrixMov            0      0.00%     45.61% # Class of committed instruction. (Count)
board.processor.cores9.core.commitStats0.committedInstType::MatrixOP            0      0.00%     45.61% # Class of committed instruction. (Count)
board.processor.cores9.core.commitStats0.committedInstType::MemRead       552927     34.15%     79.76% # Class of committed instruction. (Count)
board.processor.cores9.core.commitStats0.committedInstType::MemWrite        77794      4.80%     84.56% # Class of committed instruction. (Count)
board.processor.cores9.core.commitStats0.committedInstType::FloatMemRead       187501     11.58%     96.14% # Class of committed instruction. (Count)
board.processor.cores9.core.commitStats0.committedInstType::FloatMemWrite        62513      3.86%    100.00% # Class of committed instruction. (Count)
board.processor.cores9.core.commitStats0.committedInstType::InstPrefetch            0      0.00%    100.00% # Class of committed instruction. (Count)
board.processor.cores9.core.commitStats0.committedInstType::SimdUnitStrideLoad            0      0.00%    100.00% # Class of committed instruction. (Count)
board.processor.cores9.core.commitStats0.committedInstType::SimdUnitStrideStore            0      0.00%    100.00% # Class of committed instruction. (Count)
board.processor.cores9.core.commitStats0.committedInstType::SimdUnitStrideMaskLoad            0      0.00%    100.00% # Class of committed instruction. (Count)
board.processor.cores9.core.commitStats0.committedInstType::SimdUnitStrideMaskStore            0      0.00%    100.00% # Class of committed instruction. (Count)
board.processor.cores9.core.commitStats0.committedInstType::SimdStridedLoad            0      0.00%    100.00% # Class of committed instruction. (Count)
board.processor.cores9.core.commitStats0.committedInstType::SimdStridedStore            0      0.00%    100.00% # Class of committed instruction. (Count)
board.processor.cores9.core.commitStats0.committedInstType::SimdIndexedLoad            0      0.00%    100.00% # Class of committed instruction. (Count)
board.processor.cores9.core.commitStats0.committedInstType::SimdIndexedStore            0      0.00%    100.00% # Class of committed instruction. (Count)
board.processor.cores9.core.commitStats0.committedInstType::SimdWholeRegisterLoad            0      0.00%    100.00% # Class of committed instruction. (Count)
board.processor.cores9.core.commitStats0.committedInstType::SimdWholeRegisterStore            0      0.00%    100.00% # Class of committed instruction. (Count)
board.processor.cores9.core.commitStats0.committedInstType::SimdUnitStrideFaultOnlyFirstLoad            0      0.00%    100.00% # Class of committed instruction. (Count)
board.processor.cores9.core.commitStats0.committedInstType::SimdUnitStrideSegmentedLoad            0      0.00%    100.00% # Class of committed instruction. (Count)
board.processor.cores9.core.commitStats0.committedInstType::SimdUnitStrideSegmentedStore            0      0.00%    100.00% # Class of committed instruction. (Count)
board.processor.cores9.core.commitStats0.committedInstType::SimdUnitStrideSegmentedFaultOnlyFirstLoad            0      0.00%    100.00% # Class of committed instruction. (Count)
board.processor.cores9.core.commitStats0.committedInstType::SimdStrideSegmentedLoad            0      0.00%    100.00% # Class of committed instruction. (Count)
board.processor.cores9.core.commitStats0.committedInstType::SimdStrideSegmentedStore            0      0.00%    100.00% # Class of committed instruction. (Count)
board.processor.cores9.core.commitStats0.committedInstType::SimdExt            0      0.00%    100.00% # Class of committed instruction. (Count)
board.processor.cores9.core.commitStats0.committedInstType::SimdFloatExt            0      0.00%    100.00% # Class of committed instruction. (Count)
board.processor.cores9.core.commitStats0.committedInstType::SimdConfig            0      0.00%    100.00% # Class of committed instruction. (Count)
board.processor.cores9.core.commitStats0.committedInstType::SimdBf16Add            0      0.00%    100.00% # Class of committed instruction. (Count)
board.processor.cores9.core.commitStats0.committedInstType::SimdBf16Cmp            0      0.00%    100.00% # Class of committed instruction. (Count)
board.processor.cores9.core.commitStats0.committedInstType::SimdBf16Cvt            0      0.00%    100.00% # Class of committed instruction. (Count)
board.processor.cores9.core.commitStats0.committedInstType::SimdBf16DotProd            0      0.00%    100.00% # Class of committed instruction. (Count)
board.processor.cores9.core.commitStats0.committedInstType::SimdBf16MatMultAcc            0      0.00%    100.00% # Class of committed instruction. (Count)
board.processor.cores9.core.commitStats0.committedInstType::SimdBf16Mult            0      0.00%    100.00% # Class of committed instruction. (Count)
board.processor.cores9.core.commitStats0.committedInstType::SimdBf16MultAcc            0      0.00%    100.00% # Class of committed instruction. (Count)
board.processor.cores9.core.commitStats0.committedInstType::Bf16Cvt            0      0.00%    100.00% # Class of committed instruction. (Count)
board.processor.cores9.core.commitStats0.committedInstType::System            0      0.00%    100.00% # Class of committed instruction. (Count)
board.processor.cores9.core.commitStats0.committedInstType::total      1619281                       # Class of committed instruction. (Count)
board.processor.cores9.core.commitStats0.committedControl::IsControl        92758                       # Class of control type instructions committed (Count)
board.processor.cores9.core.commitStats0.committedControl::IsDirectControl        85207                       # Class of control type instructions committed (Count)
board.processor.cores9.core.commitStats0.committedControl::IsIndirectControl         7551                       # Class of control type instructions committed (Count)
board.processor.cores9.core.commitStats0.committedControl::IsCondControl        77639                       # Class of control type instructions committed (Count)
board.processor.cores9.core.commitStats0.committedControl::IsUncondControl        15119                       # Class of control type instructions committed (Count)
board.processor.cores9.core.commitStats0.committedControl::IsCall         7553                       # Class of control type instructions committed (Count)
board.processor.cores9.core.commitStats0.committedControl::IsReturn         7546                       # Class of control type instructions committed (Count)
board.processor.cores9.core.commitStats0.functionCalls         7553                       # Number of function calls committed (Count)
board.processor.cores9.core.commitStats0.numCallsReturns        15099                       # Number of function calls and returns committed (Count)
board.processor.cores9.core.executeStats0.numInsts      1619274                       # Number of executed instructions (Count)
board.processor.cores9.core.executeStats0.numNop            0                       # Number of nop insts executed (Count)
board.processor.cores9.core.executeStats0.numBranches        92758                       # Number of branches executed (Count)
board.processor.cores9.core.executeStats0.numLoadInsts       740424                       # Number of load instructions executed (Count)
board.processor.cores9.core.executeStats0.numStoreInsts       140311                       # Number of stores executed (Count)
board.processor.cores9.core.executeStats0.instRate     0.136963                       # Inst execution rate ((Count/Cycle))
board.processor.cores9.core.executeStats0.numFpAluAccesses       375014                       # Number of float alu accesses (Count)
board.processor.cores9.core.executeStats0.numFpRegReads       312513                       # Number of times the floating registers were read (Count)
board.processor.cores9.core.executeStats0.numFpRegWrites       312501                       # Number of times the floating registers were written (Count)
board.processor.cores9.core.executeStats0.numIntAluAccesses      1494565                       # Number of integer alu accesses (Count)
board.processor.cores9.core.executeStats0.numIntRegReads      1822167                       # Number of times the integer registers were read (Count)
board.processor.cores9.core.executeStats0.numIntRegWrites      1073736                       # Number of times the integer registers were written (Count)
board.processor.cores9.core.executeStats0.numMemRefs       880735                       # Number of memory refs (Count)
board.processor.cores9.core.executeStats0.numVecAluAccesses            0                       # Number of vector alu accesses (Count)
board.processor.cores9.core.executeStats0.numDiscardedOps          317                       # Number of ops (including micro ops) which were discarded before commit (Count)
board.processor.cores9.core.fetch2.totalInstructions      1620638                       # Total number of instructions successfully decoded (Count)
board.processor.cores9.core.fetch2.intInstructions       614288                       # Number of integer instructions successfully decoded (Count)
board.processor.cores9.core.fetch2.fpInstructions       125002                       # Number of floating point instructions successfully decoded (Count)
board.processor.cores9.core.fetch2.vecInstructions            0                       # Number of SIMD instructions successfully decoded (Count)
board.processor.cores9.core.fetch2.loadInstructions       740858                       # Number of memory load instructions successfully decoded (Count)
board.processor.cores9.core.fetch2.storeInstructions       140430                       # Number of memory store instructions successfully decoded (Count)
board.processor.cores9.core.fetch2.amoInstructions            0                       # Number of memory atomic instructions successfully decoded (Count)
board.processor.cores9.core.fetchStats0.numInsts      1620638                       # Number of instructions fetched (thread level) (Count)
board.processor.cores9.core.fetchStats0.numOps            0                       # Number of ops (including micro ops) fetched (thread level) (Count)
board.processor.cores9.core.fetchStats0.fetchRate     0.137078                       # Number of inst fetches per cycle ((Count/Cycle))
board.processor.cores9.core.fetchStats0.numBranches        93015                       # Number of branches fetched (Count)
board.processor.cores9.core.fetchStats0.branchRate     0.007867                       # Number of branch fetches per cycle (Ratio)
board.processor.cores9.core.fetchStats0.numFetchSuspends            0                       # Number of times Execute suspended instruction fetching (Count)
board.processor.cores9.core.mmu.dtb.readHits            0                       # read hits (Count)
board.processor.cores9.core.mmu.dtb.readMisses            0                       # read misses (Count)
board.processor.cores9.core.mmu.dtb.readAccesses            0                       # read accesses (Count)
board.processor.cores9.core.mmu.dtb.writeHits            0                       # write hits (Count)
board.processor.cores9.core.mmu.dtb.writeMisses            0                       # write misses (Count)
board.processor.cores9.core.mmu.dtb.writeAccesses            0                       # write accesses (Count)
board.processor.cores9.core.mmu.dtb.hits            0                       # Total TLB (read and write) hits (Count)
board.processor.cores9.core.mmu.dtb.misses            0                       # Total TLB (read and write) misses (Count)
board.processor.cores9.core.mmu.dtb.accesses            0                       # Total TLB (read and write) accesses (Count)
board.processor.cores9.core.mmu.dtb.walker.num_4kb_walks            0                       # Completed page walks with 4KB pages (Count)
board.processor.cores9.core.mmu.dtb.walker.num_64kb_walks            0                       # Completed page walks with 64KB pages (Count)
board.processor.cores9.core.mmu.dtb.walker.num_2mb_walks            0                       # Completed page walks with 2MB pages (Count)
board.processor.cores9.core.mmu.dtb.walker.power_state.pwrStateResidencyTicks::UNDEFINED  47207858886                       # Cumulative time (in ticks) in various power states (Tick)
board.processor.cores9.core.mmu.itb.readHits            0                       # read hits (Count)
board.processor.cores9.core.mmu.itb.readMisses            0                       # read misses (Count)
board.processor.cores9.core.mmu.itb.readAccesses            0                       # read accesses (Count)
board.processor.cores9.core.mmu.itb.writeHits            0                       # write hits (Count)
board.processor.cores9.core.mmu.itb.writeMisses            0                       # write misses (Count)
board.processor.cores9.core.mmu.itb.writeAccesses            0                       # write accesses (Count)
board.processor.cores9.core.mmu.itb.hits            0                       # Total TLB (read and write) hits (Count)
board.processor.cores9.core.mmu.itb.misses            0                       # Total TLB (read and write) misses (Count)
board.processor.cores9.core.mmu.itb.accesses            0                       # Total TLB (read and write) accesses (Count)
board.processor.cores9.core.mmu.itb.walker.num_4kb_walks            0                       # Completed page walks with 4KB pages (Count)
board.processor.cores9.core.mmu.itb.walker.num_64kb_walks            0                       # Completed page walks with 64KB pages (Count)
board.processor.cores9.core.mmu.itb.walker.num_2mb_walks            0                       # Completed page walks with 2MB pages (Count)
board.processor.cores9.core.mmu.itb.walker.power_state.pwrStateResidencyTicks::UNDEFINED  47207858886                       # Cumulative time (in ticks) in various power states (Tick)
board.processor.cores9.core.power_state.pwrStateResidencyTicks::ON  47207858886                       # Cumulative time (in ticks) in various power states (Tick)
board.processor.cores9.core.thread_0.numInsts      1619274                       # Number of Instructions committed (Count)
board.processor.cores9.core.thread_0.numOps      1619281                       # Number of Ops committed (Count)
board.processor.cores9.core.thread_0.numMemRefs       880735                       # Number of Memory References (Count)
board.workload.inst.arm                             0                       # number of arm instructions executed (Count)
board.workload.inst.quiesce                         0                       # number of quiesce instructions executed (Count)
board.processor.cores00.core.idleCycles      98003619                       # Total number of cycles that the object has spent stopped (Unspecified)
board.processor.cores00.core.tickCycles      43761723                       # Number of cycles that the object actually ticked (Unspecified)
board.processor.cores01.core.idleCycles       9679438                       # Total number of cycles that the object has spent stopped (Unspecified)
board.processor.cores01.core.tickCycles       2203863                       # Number of cycles that the object actually ticked (Unspecified)
board.processor.cores02.core.idleCycles       9737451                       # Total number of cycles that the object has spent stopped (Unspecified)
board.processor.cores02.core.tickCycles       2136054                       # Number of cycles that the object actually ticked (Unspecified)
board.processor.cores03.core.idleCycles       9705948                       # Total number of cycles that the object has spent stopped (Unspecified)
board.processor.cores03.core.tickCycles       2160304                       # Number of cycles that the object actually ticked (Unspecified)
board.processor.cores04.core.idleCycles       9721794                       # Total number of cycles that the object has spent stopped (Unspecified)
board.processor.cores04.core.tickCycles       2136673                       # Number of cycles that the object actually ticked (Unspecified)
board.processor.cores05.core.idleCycles       9708420                       # Total number of cycles that the object has spent stopped (Unspecified)
board.processor.cores05.core.tickCycles       2141910                       # Number of cycles that the object actually ticked (Unspecified)
board.processor.cores06.core.idleCycles       9672545                       # Total number of cycles that the object has spent stopped (Unspecified)
board.processor.cores06.core.tickCycles       2170459                       # Number of cycles that the object actually ticked (Unspecified)
board.processor.cores07.core.idleCycles       9705958                       # Total number of cycles that the object has spent stopped (Unspecified)
board.processor.cores07.core.tickCycles       2130676                       # Number of cycles that the object actually ticked (Unspecified)
board.processor.cores08.core.idleCycles       9710435                       # Total number of cycles that the object has spent stopped (Unspecified)
board.processor.cores08.core.tickCycles       2118725                       # Number of cycles that the object actually ticked (Unspecified)
board.processor.cores09.core.idleCycles       9720583                       # Total number of cycles that the object has spent stopped (Unspecified)
board.processor.cores09.core.tickCycles       2102133                       # Number of cycles that the object actually ticked (Unspecified)
board.processor.cores10.core.idleCycles       9757748                       # Total number of cycles that the object has spent stopped (Unspecified)
board.processor.cores10.core.tickCycles       2058117                       # Number of cycles that the object actually ticked (Unspecified)
board.processor.cores11.core.idleCycles       9722166                       # Total number of cycles that the object has spent stopped (Unspecified)
board.processor.cores11.core.tickCycles       2086998                       # Number of cycles that the object actually ticked (Unspecified)
board.processor.cores12.core.idleCycles       9753206                       # Total number of cycles that the object has spent stopped (Unspecified)
board.processor.cores12.core.tickCycles       2048688                       # Number of cycles that the object actually ticked (Unspecified)
board.processor.cores13.core.idleCycles       9778343                       # Total number of cycles that the object has spent stopped (Unspecified)
board.processor.cores13.core.tickCycles       2016517                       # Number of cycles that the object actually ticked (Unspecified)
board.processor.cores14.core.idleCycles       9781228                       # Total number of cycles that the object has spent stopped (Unspecified)
board.processor.cores14.core.tickCycles       2007568                       # Number of cycles that the object actually ticked (Unspecified)
board.processor.cores15.core.idleCycles       9766443                       # Total number of cycles that the object has spent stopped (Unspecified)
board.processor.cores15.core.tickCycles       2015256                       # Number of cycles that the object actually ticked (Unspecified)

---------- End Simulation Statistics   ----------
