
---------- Begin Simulation Statistics ----------
simSeconds                                   0.039522                       # Number of seconds simulated (Second)
simTicks                                  39522264507                       # Number of ticks simulated (Tick)
finalTick                                 39522264507                       # Number of ticks from beginning of simulation (restored from checkpoints and never reset) (Tick)
simFreq                                  1000000000000                       # The number of ticks per simulated second ((Tick/Second))
hostSeconds                                    338.55                       # Real time elapsed on the host (Second)
hostTickRate                                116741116                       # The number of ticks simulated per host second (ticks/s) ((Tick/Second))
hostMemory                                    2706068                       # Number of bytes of host memory used (Byte)
simInsts                                     61510644                       # Number of instructions simulated (Count)
simOps                                       61511018                       # Number of ops (including micro ops) simulated (Count)
hostInstRate                                   181690                       # Simulator instruction rate (inst/s) ((Count/Second))
hostOpRate                                     181691                       # Simulator op (including micro ops) rate (op/s) ((Count/Second))
board.cache_hierarchy.ruby_system.delayHistogram::bucket_size          512                       # delay histogram for all message (Unspecified)
board.cache_hierarchy.ruby_system.delayHistogram::max_bucket         5119                       # delay histogram for all message (Unspecified)
board.cache_hierarchy.ruby_system.delayHistogram::samples      5328467                       # delay histogram for all message (Unspecified)
board.cache_hierarchy.ruby_system.delayHistogram::mean     0.890085                       # delay histogram for all message (Unspecified)
board.cache_hierarchy.ruby_system.delayHistogram::stdev     4.404714                       # delay histogram for all message (Unspecified)
board.cache_hierarchy.ruby_system.delayHistogram |     5328455    100.00%    100.00% |           3      0.00%    100.00% |           2      0.00%    100.00% |           1      0.00%    100.00% |           2      0.00%    100.00% |           1      0.00%    100.00% |           1      0.00%    100.00% |           2      0.00%    100.00% |           0      0.00%    100.00% |           0      0.00%    100.00% # delay histogram for all message (Unspecified)
board.cache_hierarchy.ruby_system.delayHistogram::total      5328467                       # delay histogram for all message (Unspecified)
board.cache_hierarchy.ruby_system.m_outstandReqHistSeqr::bucket_size            1                       (Unspecified)
board.cache_hierarchy.ruby_system.m_outstandReqHistSeqr::max_bucket            9                       (Unspecified)
board.cache_hierarchy.ruby_system.m_outstandReqHistSeqr::samples     48914151                       (Unspecified)
board.cache_hierarchy.ruby_system.m_outstandReqHistSeqr::mean     1.379145                       (Unspecified)
board.cache_hierarchy.ruby_system.m_outstandReqHistSeqr::gmean     1.286861                       (Unspecified)
board.cache_hierarchy.ruby_system.m_outstandReqHistSeqr::stdev     0.555942                       (Unspecified)
board.cache_hierarchy.ruby_system.m_outstandReqHistSeqr |           0      0.00%      0.00% |    32170510     65.77%     65.77% |    14941706     30.55%     96.32% |     1801935      3.68%    100.00% |           0      0.00%    100.00% |           0      0.00%    100.00% |           0      0.00%    100.00% |           0      0.00%    100.00% |           0      0.00%    100.00% |           0      0.00%    100.00% (Unspecified)
board.cache_hierarchy.ruby_system.m_outstandReqHistSeqr::total     48914151                       (Unspecified)
board.cache_hierarchy.ruby_system.m_latencyHistSeqr::bucket_size          256                       (Unspecified)
board.cache_hierarchy.ruby_system.m_latencyHistSeqr::max_bucket         2559                       (Unspecified)
board.cache_hierarchy.ruby_system.m_latencyHistSeqr::samples     49289165                       (Unspecified)
board.cache_hierarchy.ruby_system.m_latencyHistSeqr::mean     5.450723                       (Unspecified)
board.cache_hierarchy.ruby_system.m_latencyHistSeqr::gmean     1.095215                       (Unspecified)
board.cache_hierarchy.ruby_system.m_latencyHistSeqr::stdev    41.874944                       (Unspecified)
board.cache_hierarchy.ruby_system.m_latencyHistSeqr |    48931369     99.27%     99.27% |      267252      0.54%     99.82% |       76967      0.16%     99.97% |        6947      0.01%     99.99% |        3829      0.01%     99.99% |        2397      0.00%    100.00% |         399      0.00%    100.00% |           5      0.00%    100.00% |           0      0.00%    100.00% |           0      0.00%    100.00% (Unspecified)
board.cache_hierarchy.ruby_system.m_latencyHistSeqr::total     49289165                       (Unspecified)
board.cache_hierarchy.ruby_system.m_hitLatencyHistSeqr::bucket_size           64                       (Unspecified)
board.cache_hierarchy.ruby_system.m_hitLatencyHistSeqr::max_bucket          639                       (Unspecified)
board.cache_hierarchy.ruby_system.m_hitLatencyHistSeqr::samples     48522014                       (Unspecified)
board.cache_hierarchy.ruby_system.m_hitLatencyHistSeqr::mean     1.007909                       (Unspecified)
board.cache_hierarchy.ruby_system.m_hitLatencyHistSeqr::gmean     1.005379                       (Unspecified)
board.cache_hierarchy.ruby_system.m_hitLatencyHistSeqr::stdev     0.204020                       (Unspecified)
board.cache_hierarchy.ruby_system.m_hitLatencyHistSeqr |    48521923    100.00%    100.00% |          83      0.00%    100.00% |           0      0.00%    100.00% |           0      0.00%    100.00% |           0      0.00%    100.00% |           3      0.00%    100.00% |           5      0.00%    100.00% |           0      0.00%    100.00% |           0      0.00%    100.00% |           0      0.00%    100.00% (Unspecified)
board.cache_hierarchy.ruby_system.m_hitLatencyHistSeqr::total     48522014                       (Unspecified)
board.cache_hierarchy.ruby_system.m_missLatencyHistSeqr::bucket_size          256                       (Unspecified)
board.cache_hierarchy.ruby_system.m_missLatencyHistSeqr::max_bucket         2559                       (Unspecified)
board.cache_hierarchy.ruby_system.m_missLatencyHistSeqr::samples       767151                       (Unspecified)
board.cache_hierarchy.ruby_system.m_missLatencyHistSeqr::mean   286.457081                       (Unspecified)
board.cache_hierarchy.ruby_system.m_missLatencyHistSeqr::gmean   245.734670                       (Unspecified)
board.cache_hierarchy.ruby_system.m_missLatencyHistSeqr::stdev   180.129939                       (Unspecified)
board.cache_hierarchy.ruby_system.m_missLatencyHistSeqr |      409363     53.36%     53.36% |      267244     34.84%     88.20% |       76967     10.03%     98.23% |        6947      0.91%     99.14% |        3829      0.50%     99.63% |        2397      0.31%     99.95% |         399      0.05%    100.00% |           5      0.00%    100.00% |           0      0.00%    100.00% |           0      0.00%    100.00% (Unspecified)
board.cache_hierarchy.ruby_system.m_missLatencyHistSeqr::total       767151                       (Unspecified)
board.cache_hierarchy.ruby_system.delayVCHist.vnet_0::bucket_size          512                       # delay histogram for vnet_0 (Unspecified)
board.cache_hierarchy.ruby_system.delayVCHist.vnet_0::max_bucket         5119                       # delay histogram for vnet_0 (Unspecified)
board.cache_hierarchy.ruby_system.delayVCHist.vnet_0::samples      1904895                       # delay histogram for vnet_0 (Unspecified)
board.cache_hierarchy.ruby_system.delayVCHist.vnet_0::mean     1.988327                       # delay histogram for vnet_0 (Unspecified)
board.cache_hierarchy.ruby_system.delayVCHist.vnet_0::stdev     6.975343                       # delay histogram for vnet_0 (Unspecified)
board.cache_hierarchy.ruby_system.delayVCHist.vnet_0 |     1904883    100.00%    100.00% |           3      0.00%    100.00% |           2      0.00%    100.00% |           1      0.00%    100.00% |           2      0.00%    100.00% |           1      0.00%    100.00% |           1      0.00%    100.00% |           2      0.00%    100.00% |           0      0.00%    100.00% |           0      0.00%    100.00% # delay histogram for vnet_0 (Unspecified)
board.cache_hierarchy.ruby_system.delayVCHist.vnet_0::total      1904895                       # delay histogram for vnet_0 (Unspecified)
board.cache_hierarchy.ruby_system.delayVCHist.vnet_1::bucket_size           16                       # delay histogram for vnet_1 (Unspecified)
board.cache_hierarchy.ruby_system.delayVCHist.vnet_1::max_bucket          159                       # delay histogram for vnet_1 (Unspecified)
board.cache_hierarchy.ruby_system.delayVCHist.vnet_1::samples      3042264                       # delay histogram for vnet_1 (Unspecified)
board.cache_hierarchy.ruby_system.delayVCHist.vnet_1::mean     0.313780                       # delay histogram for vnet_1 (Unspecified)
board.cache_hierarchy.ruby_system.delayVCHist.vnet_1::stdev     1.526238                       # delay histogram for vnet_1 (Unspecified)
board.cache_hierarchy.ruby_system.delayVCHist.vnet_1 |     3038665     99.88%     99.88% |        3321      0.11%     99.99% |         151      0.00%    100.00% |          45      0.00%    100.00% |          23      0.00%    100.00% |          47      0.00%    100.00% |           8      0.00%    100.00% |           4      0.00%    100.00% |           0      0.00%    100.00% |           0      0.00%    100.00% # delay histogram for vnet_1 (Unspecified)
board.cache_hierarchy.ruby_system.delayVCHist.vnet_1::total      3042264                       # delay histogram for vnet_1 (Unspecified)
board.cache_hierarchy.ruby_system.delayVCHist.vnet_2::bucket_size            1                       # delay histogram for vnet_2 (Unspecified)
board.cache_hierarchy.ruby_system.delayVCHist.vnet_2::max_bucket            9                       # delay histogram for vnet_2 (Unspecified)
board.cache_hierarchy.ruby_system.delayVCHist.vnet_2::samples       381308                       # delay histogram for vnet_2 (Unspecified)
board.cache_hierarchy.ruby_system.delayVCHist.vnet_2::mean     0.001663                       # delay histogram for vnet_2 (Unspecified)
board.cache_hierarchy.ruby_system.delayVCHist.vnet_2::stdev     0.057642                       # delay histogram for vnet_2 (Unspecified)
board.cache_hierarchy.ruby_system.delayVCHist.vnet_2 |      380991     99.92%     99.92% |           0      0.00%     99.92% |         317      0.08%    100.00% |           0      0.00%    100.00% |           0      0.00%    100.00% |           0      0.00%    100.00% |           0      0.00%    100.00% |           0      0.00%    100.00% |           0      0.00%    100.00% |           0      0.00%    100.00% # delay histogram for vnet_2 (Unspecified)
board.cache_hierarchy.ruby_system.delayVCHist.vnet_2::total       381308                       # delay histogram for vnet_2 (Unspecified)
board.cache_hierarchy.ruby_system.Directory_Controller.Fetch       758402      0.00%      0.00% (Unspecified)
board.cache_hierarchy.ruby_system.Directory_Controller.Data       501473      0.00%      0.00% (Unspecified)
board.cache_hierarchy.ruby_system.Directory_Controller.Memory_Data       758402      0.00%      0.00% (Unspecified)
board.cache_hierarchy.ruby_system.Directory_Controller.Memory_Ack       501473      0.00%      0.00% (Unspecified)
board.cache_hierarchy.ruby_system.Directory_Controller.CleanReplacement       252833      0.00%      0.00% (Unspecified)
board.cache_hierarchy.ruby_system.Directory_Controller.I.Fetch       758402      0.00%      0.00% (Unspecified)
board.cache_hierarchy.ruby_system.Directory_Controller.M.Data       501473      0.00%      0.00% (Unspecified)
board.cache_hierarchy.ruby_system.Directory_Controller.M.CleanReplacement       252833      0.00%      0.00% (Unspecified)
board.cache_hierarchy.ruby_system.Directory_Controller.IM.Memory_Data       758402      0.00%      0.00% (Unspecified)
board.cache_hierarchy.ruby_system.Directory_Controller.MI.Memory_Ack       501473      0.00%      0.00% (Unspecified)
board.cache_hierarchy.ruby_system.L1Cache_Controller.Load |    15619898     63.72%     63.72% |      605929      2.47%     66.19% |      609642      2.49%     68.67% |      604389      2.47%     71.14% |      598600      2.44%     73.58% |      590659      2.41%     75.99% |      594858      2.43%     78.42% |      601524      2.45%     80.87% |      590208      2.41%     83.28% |      588863      2.40%     85.68% |      586837      2.39%     88.07% |      585647      2.39%     90.46% |      588464      2.40%     92.86% |      583133      2.38%     95.24% |      580917      2.37%     97.61% |      585246      2.39%    100.00% (Unspecified)
board.cache_hierarchy.ruby_system.L1Cache_Controller.Load::total     24514814                       (Unspecified)
board.cache_hierarchy.ruby_system.L1Cache_Controller.Ifetch |    12411444     72.72%     72.72% |      336291      1.97%     74.69% |      343718      2.01%     76.70% |      333215      1.95%     78.65% |      321665      1.88%     80.54% |      305826      1.79%     82.33% |      314168      1.84%     84.17% |      327513      1.92%     86.09% |      304882      1.79%     87.88% |      302226      1.77%     89.65% |      298150      1.75%     91.39% |      295772      1.73%     93.13% |      301397      1.77%     94.89% |      290759      1.70%     96.59% |      286281      1.68%     98.27% |      294933      1.73%    100.00% (Unspecified)
board.cache_hierarchy.ruby_system.L1Cache_Controller.Ifetch::total     17068240                       (Unspecified)
board.cache_hierarchy.ruby_system.L1Cache_Controller.Store |     5764399     74.80%     74.80% |      134612      1.75%     76.55% |      136098      1.77%     78.32% |      133988      1.74%     80.06% |      131681      1.71%     81.76% |      128514      1.67%     83.43% |      130183      1.69%     85.12% |      132850      1.72%     86.85% |      128326      1.67%     88.51% |      127792      1.66%     90.17% |      126983      1.65%     91.82% |      126502      1.64%     93.46% |      127624      1.66%     95.12% |      125499      1.63%     96.74% |      124608      1.62%     98.36% |      126326      1.64%    100.00% (Unspecified)
board.cache_hierarchy.ruby_system.L1Cache_Controller.Store::total      7705985                       (Unspecified)
board.cache_hierarchy.ruby_system.L1Cache_Controller.Inv |       25456      6.68%      6.68% |       23857      6.26%     12.94% |       23814      6.25%     19.19% |       23723      6.23%     25.42% |       23738      6.23%     31.65% |       23670      6.21%     37.86% |       23730      6.23%     44.09% |       23822      6.25%     50.34% |       23622      6.20%     56.54% |       23683      6.22%     62.76% |       23630      6.20%     68.96% |       23564      6.18%     75.14% |       23745      6.23%     81.37% |       23697      6.22%     87.59% |       23590      6.19%     93.78% |       23688      6.22%    100.00% (Unspecified)
board.cache_hierarchy.ruby_system.L1Cache_Controller.Inv::total       381029                       (Unspecified)
board.cache_hierarchy.ruby_system.L1Cache_Controller.L1_Replacement |      400906     53.74%     53.74% |       23004      3.08%     56.83% |       23001      3.08%     59.91% |       23004      3.08%     63.00% |       23001      3.08%     66.08% |       23004      3.08%     69.16% |       23001      3.08%     72.25% |       23004      3.08%     75.33% |       23001      3.08%     78.41% |       23004      3.08%     81.50% |       23001      3.08%     84.58% |       23004      3.08%     87.67% |       23001      3.08%     90.75% |       23004      3.08%     93.83% |       23003      3.08%     96.92% |       23002      3.08%    100.00% (Unspecified)
board.cache_hierarchy.ruby_system.L1Cache_Controller.L1_Replacement::total       745945                       (Unspecified)
board.cache_hierarchy.ruby_system.L1Cache_Controller.Fwd_GETX |          75     52.82%     52.82% |           5      3.52%     56.34% |           5      3.52%     59.86% |           5      3.52%     63.38% |           5      3.52%     66.90% |           4      2.82%     69.72% |           5      3.52%     73.24% |           4      2.82%     76.06% |           5      3.52%     79.58% |           5      3.52%     83.10% |           5      3.52%     86.62% |           5      3.52%     90.14% |           5      3.52%     93.66% |           4      2.82%     96.48% |           4      2.82%     99.30% |           1      0.70%    100.00% (Unspecified)
board.cache_hierarchy.ruby_system.L1Cache_Controller.Fwd_GETX::total          142                       (Unspecified)
board.cache_hierarchy.ruby_system.L1Cache_Controller.Fwd_GETS |         120     87.59%     87.59% |          10      7.30%     94.89% |           4      2.92%     97.81% |           0      0.00%     97.81% |           0      0.00%     97.81% |           0      0.00%     97.81% |           0      0.00%     97.81% |           0      0.00%     97.81% |           0      0.00%     97.81% |           0      0.00%     97.81% |           0      0.00%     97.81% |           0      0.00%     97.81% |           0      0.00%     97.81% |           0      0.00%     97.81% |           2      1.46%     99.27% |           1      0.73%    100.00% (Unspecified)
board.cache_hierarchy.ruby_system.L1Cache_Controller.Fwd_GETS::total          137                       (Unspecified)
board.cache_hierarchy.ruby_system.L1Cache_Controller.Data_Exclusive |       17530      6.87%      6.87% |       15847      6.21%     13.08% |       15815      6.20%     19.28% |       15813      6.20%     25.47% |       15812      6.20%     31.67% |       15831      6.20%     37.87% |       15868      6.22%     44.09% |       15868      6.22%     50.31% |       15834      6.20%     56.51% |       15837      6.21%     62.72% |       15865      6.22%     68.93% |       15870      6.22%     75.15% |       15834      6.20%     81.36% |       15836      6.21%     87.56% |       15870      6.22%     93.78% |       15874      6.22%    100.00% (Unspecified)
board.cache_hierarchy.ruby_system.L1Cache_Controller.Data_Exclusive::total       255204                       (Unspecified)
board.cache_hierarchy.ruby_system.L1Cache_Controller.DataS_fromL1 |           1      0.73%      0.73% |          24     17.52%     18.25% |          17     12.41%     30.66% |           8      5.84%     36.50% |           7      5.11%     41.61% |           7      5.11%     46.72% |           7      5.11%     51.82% |           7      5.11%     56.93% |           7      5.11%     62.04% |           7      5.11%     67.15% |           9      6.57%     73.72% |           8      5.84%     79.56% |           7      5.11%     84.67% |           7      5.11%     89.78% |           7      5.11%     94.89% |           7      5.11%    100.00% (Unspecified)
board.cache_hierarchy.ruby_system.L1Cache_Controller.DataS_fromL1::total          137                       (Unspecified)
board.cache_hierarchy.ruby_system.L1Cache_Controller.Data_all_Acks |      385586     75.35%     75.35% |        8382      1.64%     76.98% |        8392      1.64%     78.62% |        8408      1.64%     80.27% |        8412      1.64%     81.91% |        8421      1.65%     83.56% |        8415      1.64%     85.20% |        8414      1.64%     86.84% |        8415      1.64%     88.49% |        8416      1.64%     90.13% |        8416      1.64%     91.78% |        8416      1.64%     93.42% |        8415      1.64%     95.07% |        8416      1.64%     96.71% |        8420      1.65%     98.36% |        8413      1.64%    100.00% (Unspecified)
board.cache_hierarchy.ruby_system.L1Cache_Controller.Data_all_Acks::total       511757                       (Unspecified)
board.cache_hierarchy.ruby_system.L1Cache_Controller.Ack |          15     20.00%     20.00% |           2      2.67%     22.67% |           2      2.67%     25.33% |           2      2.67%     28.00% |           2      2.67%     30.67% |           2      2.67%     33.33% |           2      2.67%     36.00% |           2      2.67%     38.67% |           2      2.67%     41.33% |           2      2.67%     44.00% |           2      2.67%     46.67% |           2      2.67%     49.33% |           2      2.67%     52.00% |           2      2.67%     54.67% |          17     22.67%     77.33% |          17     22.67%    100.00% (Unspecified)
board.cache_hierarchy.ruby_system.L1Cache_Controller.Ack::total           75                       (Unspecified)
board.cache_hierarchy.ruby_system.L1Cache_Controller.Ack_all |          15     31.91%     31.91% |           2      4.26%     36.17% |           2      4.26%     40.43% |           2      4.26%     44.68% |           2      4.26%     48.94% |           2      4.26%     53.19% |           2      4.26%     57.45% |           2      4.26%     61.70% |           2      4.26%     65.96% |           2      4.26%     70.21% |           2      4.26%     74.47% |           2      4.26%     78.72% |           2      4.26%     82.98% |           2      4.26%     87.23% |           3      6.38%     93.62% |           3      6.38%    100.00% (Unspecified)
board.cache_hierarchy.ruby_system.L1Cache_Controller.Ack_all::total           47                       (Unspecified)
board.cache_hierarchy.ruby_system.L1Cache_Controller.WB_Ack |      376884     98.86%     98.86% |         303      0.08%     98.94% |         320      0.08%     99.02% |         341      0.09%     99.11% |         275      0.07%     99.18% |         251      0.07%     99.25% |         321      0.08%     99.33% |         317      0.08%     99.42% |         280      0.07%     99.49% |         245      0.06%     99.55% |         275      0.07%     99.63% |         354      0.09%     99.72% |         239      0.06%     99.78% |         232      0.06%     99.84% |         291      0.08%     99.92% |         311      0.08%    100.00% (Unspecified)
board.cache_hierarchy.ruby_system.L1Cache_Controller.WB_Ack::total       381239                       (Unspecified)
board.cache_hierarchy.ruby_system.L1Cache_Controller.Load_Linked |         128    100.00%    100.00% |           0      0.00%    100.00% |           0      0.00%    100.00% |           0      0.00%    100.00% |           0      0.00%    100.00% |           0      0.00%    100.00% |           0      0.00%    100.00% |           0      0.00%    100.00% |           0      0.00%    100.00% |           0      0.00%    100.00% |           0      0.00%    100.00% |           0      0.00%    100.00% |           0      0.00%    100.00% |           0      0.00%    100.00% |           0      0.00%    100.00% |           0      0.00%    100.00% (Unspecified)
board.cache_hierarchy.ruby_system.L1Cache_Controller.Load_Linked::total          128                       (Unspecified)
board.cache_hierarchy.ruby_system.L1Cache_Controller.LLSC_Data_all_Acks |           6    100.00%    100.00% |           0      0.00%    100.00% |           0      0.00%    100.00% |           0      0.00%    100.00% |           0      0.00%    100.00% |           0      0.00%    100.00% |           0      0.00%    100.00% |           0      0.00%    100.00% |           0      0.00%    100.00% |           0      0.00%    100.00% |           0      0.00%    100.00% |           0      0.00%    100.00% |           0      0.00%    100.00% |           0      0.00%    100.00% |           0      0.00%    100.00% |           0      0.00%    100.00% (Unspecified)
board.cache_hierarchy.ruby_system.L1Cache_Controller.LLSC_Data_all_Acks::total            6                       (Unspecified)
board.cache_hierarchy.ruby_system.L1Cache_Controller.LLSC_Timeout |         128    100.00%    100.00% |           0      0.00%    100.00% |           0      0.00%    100.00% |           0      0.00%    100.00% |           0      0.00%    100.00% |           0      0.00%    100.00% |           0      0.00%    100.00% |           0      0.00%    100.00% |           0      0.00%    100.00% |           0      0.00%    100.00% |           0      0.00%    100.00% |           0      0.00%    100.00% |           0      0.00%    100.00% |           0      0.00%    100.00% |           0      0.00%    100.00% |           0      0.00%    100.00% (Unspecified)
board.cache_hierarchy.ruby_system.L1Cache_Controller.LLSC_Timeout::total          128                       (Unspecified)
board.cache_hierarchy.ruby_system.L1Cache_Controller.NP.Load |       17262      6.84%      6.84% |       15671      6.21%     13.05% |       15669      6.21%     19.26% |       15671      6.21%     25.47% |       15669      6.21%     31.68% |       15671      6.21%     37.89% |       15669      6.21%     44.10% |       15671      6.21%     50.32% |       15669      6.21%     56.53% |       15671      6.21%     62.74% |       15669      6.21%     68.95% |       15671      6.21%     75.16% |       15669      6.21%     81.37% |       15671      6.21%     87.58% |       15671      6.21%     93.79% |       15669      6.21%    100.00% (Unspecified)
board.cache_hierarchy.ruby_system.L1Cache_Controller.NP.Load::total       252313                       (Unspecified)
board.cache_hierarchy.ruby_system.L1Cache_Controller.NP.Ifetch |        1265     36.18%     36.18% |         148      4.23%     40.42% |         148      4.23%     44.65% |         148      4.23%     48.88% |         148      4.23%     53.12% |         148      4.23%     57.35% |         148      4.23%     61.58% |         148      4.23%     65.82% |         148      4.23%     70.05% |         148      4.23%     74.28% |         148      4.23%     78.52% |         148      4.23%     82.75% |         148      4.23%     86.99% |         148      4.23%     91.22% |         154      4.41%     95.62% |         153      4.38%    100.00% (Unspecified)
board.cache_hierarchy.ruby_system.L1Cache_Controller.NP.Ifetch::total         3496                       (Unspecified)
board.cache_hierarchy.ruby_system.L1Cache_Controller.NP.Store |      383396     76.52%     76.52% |        7845      1.57%     78.08% |        7844      1.57%     79.65% |        7845      1.57%     81.21% |        7844      1.57%     82.78% |        7845      1.57%     84.34% |        7844      1.57%     85.91% |        7845      1.57%     87.48% |        7844      1.57%     89.04% |        7845      1.57%     90.61% |        7844      1.57%     92.17% |        7845      1.57%     93.74% |        7844      1.57%     95.30% |        7845      1.57%     96.87% |        7844      1.57%     98.43% |        7845      1.57%    100.00% (Unspecified)
board.cache_hierarchy.ruby_system.L1Cache_Controller.NP.Store::total       501064                       (Unspecified)
board.cache_hierarchy.ruby_system.L1Cache_Controller.NP.Inv |         197     96.57%     96.57% |           0      0.00%     96.57% |           1      0.49%     97.06% |           2      0.98%     98.04% |           2      0.98%     99.02% |           1      0.49%     99.51% |           0      0.00%     99.51% |           0      0.00%     99.51% |           0      0.00%     99.51% |           0      0.00%     99.51% |           0      0.00%     99.51% |           0      0.00%     99.51% |           0      0.00%     99.51% |           0      0.00%     99.51% |           0      0.00%     99.51% |           1      0.49%    100.00% (Unspecified)
board.cache_hierarchy.ruby_system.L1Cache_Controller.NP.Inv::total          204                       (Unspecified)
board.cache_hierarchy.ruby_system.L1Cache_Controller.NP.Load_Linked |           6    100.00%    100.00% |           0      0.00%    100.00% |           0      0.00%    100.00% |           0      0.00%    100.00% |           0      0.00%    100.00% |           0      0.00%    100.00% |           0      0.00%    100.00% |           0      0.00%    100.00% |           0      0.00%    100.00% |           0      0.00%    100.00% |           0      0.00%    100.00% |           0      0.00%    100.00% |           0      0.00%    100.00% |           0      0.00%    100.00% |           0      0.00%    100.00% |           0      0.00%    100.00% (Unspecified)
board.cache_hierarchy.ruby_system.L1Cache_Controller.NP.Load_Linked::total            6                       (Unspecified)
board.cache_hierarchy.ruby_system.L1Cache_Controller.I.Load |         277      7.89%      7.89% |         208      5.92%     13.81% |         184      5.24%     19.05% |         184      5.24%     24.30% |         185      5.27%     29.56% |         202      5.75%     35.32% |         241      6.86%     42.18% |         239      6.81%     48.99% |         207      5.90%     54.88% |         208      5.92%     60.81% |         238      6.78%     67.59% |         241      6.86%     74.45% |         207      5.90%     80.35% |         207      5.90%     86.24% |         240      6.84%     93.08% |         243      6.92%    100.00% (Unspecified)
board.cache_hierarchy.ruby_system.L1Cache_Controller.I.Load::total         3511                       (Unspecified)
board.cache_hierarchy.ruby_system.L1Cache_Controller.I.Ifetch |         915     13.72%     13.72% |         379      5.68%     19.41% |         379      5.68%     25.09% |         380      5.70%     30.79% |         385      5.77%     36.56% |         385      5.77%     42.34% |         385      5.77%     48.11% |         381      5.71%     53.82% |         385      5.77%     59.60% |         385      5.77%     65.37% |         385      5.77%     71.15% |         385      5.77%     76.92% |         385      5.77%     82.69% |         385      5.77%     88.47% |         385      5.77%     94.24% |         384      5.76%    100.00% (Unspecified)
board.cache_hierarchy.ruby_system.L1Cache_Controller.I.Ifetch::total         6668                       (Unspecified)
board.cache_hierarchy.ruby_system.L1Cache_Controller.I.Store |           3      6.38%      6.38% |           2      4.26%     10.64% |           0      0.00%     10.64% |           1      2.13%     12.77% |           0      0.00%     12.77% |           8     17.02%     29.79% |           3      6.38%     36.17% |           5     10.64%     46.81% |           3      6.38%     53.19% |           3      6.38%     59.57% |           6     12.77%     72.34% |           4      8.51%     80.85% |           3      6.38%     87.23% |           3      6.38%     93.62% |           3      6.38%    100.00% |           0      0.00%    100.00% (Unspecified)
board.cache_hierarchy.ruby_system.L1Cache_Controller.I.Store::total           47                       (Unspecified)
board.cache_hierarchy.ruby_system.L1Cache_Controller.I.L1_Replacement |       23739      6.51%      6.51% |       22701      6.23%     12.74% |       22680      6.22%     18.97% |       22661      6.22%     25.19% |       22724      6.24%     31.42% |       22752      6.24%     37.66% |       22680      6.22%     43.89% |       22687      6.23%     50.11% |       22721      6.23%     56.35% |       22759      6.25%     62.59% |       22726      6.24%     68.83% |       22650      6.22%     75.05% |       22762      6.25%     81.29% |       22772      6.25%     87.54% |       22712      6.23%     93.77% |       22690      6.23%    100.00% (Unspecified)
board.cache_hierarchy.ruby_system.L1Cache_Controller.I.L1_Replacement::total       364416                       (Unspecified)
board.cache_hierarchy.ruby_system.L1Cache_Controller.S.Load |        2711      2.92%      2.92% |        8630      9.28%     12.20% |        8715      9.38%     21.58% |        8339      8.97%     30.55% |        7183      7.73%     38.27% |        5600      6.02%     44.30% |        6434      6.92%     51.22% |        7768      8.36%     59.58% |        5506      5.92%     65.50% |        5240      5.64%     71.14% |        4832      5.20%     76.33% |        4594      4.94%     81.28% |        5157      5.55%     86.82% |        4093      4.40%     91.23% |        3645      3.92%     95.15% |        4510      4.85%    100.00% (Unspecified)
board.cache_hierarchy.ruby_system.L1Cache_Controller.S.Load::total        92957                       (Unspecified)
board.cache_hierarchy.ruby_system.L1Cache_Controller.S.Ifetch |    12409263     72.75%     72.75% |      335764      1.97%     74.72% |      343191      2.01%     76.73% |      332687      1.95%     78.68% |      321132      1.88%     80.56% |      305293      1.79%     82.35% |      313635      1.84%     84.19% |      326984      1.92%     86.11% |      304349      1.78%     87.89% |      301693      1.77%     89.66% |      297617      1.74%     91.40% |      295239      1.73%     93.13% |      300864      1.76%     94.90% |      290226      1.70%     96.60% |      285742      1.68%     98.27% |      294396      1.73%    100.00% (Unspecified)
board.cache_hierarchy.ruby_system.L1Cache_Controller.S.Ifetch::total     17058075                       (Unspecified)
board.cache_hierarchy.ruby_system.L1Cache_Controller.S.Store |          15     31.91%     31.91% |           2      4.26%     36.17% |           2      4.26%     40.43% |           2      4.26%     44.68% |           2      4.26%     48.94% |           2      4.26%     53.19% |           2      4.26%     57.45% |           2      4.26%     61.70% |           2      4.26%     65.96% |           2      4.26%     70.21% |           2      4.26%     74.47% |           2      4.26%     78.72% |           2      4.26%     82.98% |           2      4.26%     87.23% |           3      6.38%     93.62% |           3      6.38%    100.00% (Unspecified)
board.cache_hierarchy.ruby_system.L1Cache_Controller.S.Store::total           47                       (Unspecified)
board.cache_hierarchy.ruby_system.L1Cache_Controller.S.Inv |        1635     17.06%     17.06% |         529      5.52%     22.57% |         528      5.51%     28.08% |         528      5.51%     33.59% |         529      5.52%     39.11% |         530      5.53%     44.64% |         531      5.54%     50.18% |         531      5.54%     55.72% |         531      5.54%     61.26% |         531      5.54%     66.80% |         531      5.54%     72.33% |         531      5.54%     77.87% |         531      5.54%     83.41% |         531      5.54%     88.95% |         530      5.53%     94.48% |         529      5.52%    100.00% (Unspecified)
board.cache_hierarchy.ruby_system.L1Cache_Controller.S.Inv::total         9586                       (Unspecified)
board.cache_hierarchy.ruby_system.L1Cache_Controller.S.L1_Replacement |         283     97.59%     97.59% |           0      0.00%     97.59% |           1      0.34%     97.93% |           2      0.69%     98.62% |           2      0.69%     99.31% |           1      0.34%     99.66% |           0      0.00%     99.66% |           0      0.00%     99.66% |           0      0.00%     99.66% |           0      0.00%     99.66% |           0      0.00%     99.66% |           0      0.00%     99.66% |           0      0.00%     99.66% |           0      0.00%     99.66% |           0      0.00%     99.66% |           1      0.34%    100.00% (Unspecified)
board.cache_hierarchy.ruby_system.L1Cache_Controller.S.L1_Replacement::total          290                       (Unspecified)
board.cache_hierarchy.ruby_system.L1Cache_Controller.E.Load |     3073753     40.96%     40.96% |      295514      3.94%     44.89% |      295888      3.94%     48.84% |      295650      3.94%     52.78% |      295746      3.94%     56.72% |      295394      3.94%     60.65% |      295350      3.94%     64.59% |      295249      3.93%     68.52% |      294915      3.93%     72.45% |      295901      3.94%     76.39% |      295226      3.93%     80.33% |      295352      3.94%     84.26% |      295039      3.93%     88.19% |      295524      3.94%     92.13% |      295260      3.93%     96.07% |      295299      3.93%    100.00% (Unspecified)
board.cache_hierarchy.ruby_system.L1Cache_Controller.E.Load::total      7505060                       (Unspecified)
board.cache_hierarchy.ruby_system.L1Cache_Controller.E.Store |         248     13.43%     13.43% |         104      5.63%     19.07% |          93      5.04%     24.11% |          91      4.93%     29.04% |          93      5.04%     34.07% |          97      5.25%     39.33% |         119      6.45%     45.77% |         117      6.34%     52.11% |         102      5.53%     57.64% |         102      5.53%     63.16% |         116      6.28%     69.45% |         119      6.45%     75.89% |         102      5.53%     81.42% |         102      5.53%     86.94% |         119      6.45%     93.39% |         122      6.61%    100.00% (Unspecified)
board.cache_hierarchy.ruby_system.L1Cache_Controller.E.Store::total         1846                       (Unspecified)
board.cache_hierarchy.ruby_system.L1Cache_Controller.E.Inv |       15453      6.31%      6.31% |       15386      6.28%     12.59% |       15357      6.27%     18.85% |       15298      6.24%     25.10% |       15344      6.26%     31.36% |       15295      6.24%     37.60% |       15302      6.25%     43.85% |       15363      6.27%     50.12% |       15260      6.23%     56.34% |       15314      6.25%     62.59% |       15264      6.23%     68.82% |       15190      6.20%     75.02% |       15363      6.27%     81.29% |       15332      6.26%     87.55% |       15229      6.22%     93.77% |       15277      6.23%    100.00% (Unspecified)
board.cache_hierarchy.ruby_system.L1Cache_Controller.E.Inv::total       245027                       (Unspecified)
board.cache_hierarchy.ruby_system.L1Cache_Controller.E.L1_Replacement |        1685     27.97%     27.97% |         303      5.03%     33.00% |         318      5.28%     38.27% |         338      5.61%     43.88% |         275      4.56%     48.45% |         250      4.15%     52.60% |         319      5.29%     57.89% |         315      5.23%     63.12% |         280      4.65%     67.77% |         245      4.07%     71.83% |         274      4.55%     76.38% |         352      5.84%     82.22% |         239      3.97%     86.19% |         232      3.85%     90.04% |         289      4.80%     94.84% |         311      5.16%    100.00% (Unspecified)
board.cache_hierarchy.ruby_system.L1Cache_Controller.E.L1_Replacement::total         6025                       (Unspecified)
board.cache_hierarchy.ruby_system.L1Cache_Controller.E.Fwd_GETS |           7     33.33%     33.33% |          10     47.62%     80.95% |           4     19.05%    100.00% |           0      0.00%    100.00% |           0      0.00%    100.00% |           0      0.00%    100.00% |           0      0.00%    100.00% |           0      0.00%    100.00% |           0      0.00%    100.00% |           0      0.00%    100.00% |           0      0.00%    100.00% |           0      0.00%    100.00% |           0      0.00%    100.00% |           0      0.00%    100.00% |           0      0.00%    100.00% |           0      0.00%    100.00% (Unspecified)
board.cache_hierarchy.ruby_system.L1Cache_Controller.E.Fwd_GETS::total           21                       (Unspecified)
board.cache_hierarchy.ruby_system.L1Cache_Controller.E.Load_Linked |           9    100.00%    100.00% |           0      0.00%    100.00% |           0      0.00%    100.00% |           0      0.00%    100.00% |           0      0.00%    100.00% |           0      0.00%    100.00% |           0      0.00%    100.00% |           0      0.00%    100.00% |           0      0.00%    100.00% |           0      0.00%    100.00% |           0      0.00%    100.00% |           0      0.00%    100.00% |           0      0.00%    100.00% |           0      0.00%    100.00% |           0      0.00%    100.00% |           0      0.00%    100.00% (Unspecified)
board.cache_hierarchy.ruby_system.L1Cache_Controller.E.Load_Linked::total            9                       (Unspecified)
board.cache_hierarchy.ruby_system.L1Cache_Controller.M.Load |    12525875     75.18%     75.18% |      285906      1.72%     76.90% |      289186      1.74%     78.63% |      284545      1.71%     80.34% |      279817      1.68%     82.02% |      273792      1.64%     83.66% |      277164      1.66%     85.33% |      282597      1.70%     87.02% |      273911      1.64%     88.67% |      271843      1.63%     90.30% |      270872      1.63%     91.92% |      269789      1.62%     93.54% |      272392      1.63%     95.18% |      267638      1.61%     96.79% |      266101      1.60%     98.38% |      269525      1.62%    100.00% (Unspecified)
board.cache_hierarchy.ruby_system.L1Cache_Controller.M.Load::total     16660953                       (Unspecified)
board.cache_hierarchy.ruby_system.L1Cache_Controller.M.Store |     5380601     74.70%     74.70% |      126659      1.76%     76.46% |      128159      1.78%     78.24% |      126049      1.75%     79.99% |      123742      1.72%     81.71% |      120562      1.67%     83.38% |      122215      1.70%     85.08% |      124881      1.73%     86.81% |      120375      1.67%     88.48% |      119840      1.66%     90.15% |      119015      1.65%     91.80% |      118532      1.65%     93.44% |      119673      1.66%     95.11% |      117547      1.63%     96.74% |      116639      1.62%     98.36% |      118356      1.64%    100.00% (Unspecified)
board.cache_hierarchy.ruby_system.L1Cache_Controller.M.Store::total      7202845                       (Unspecified)
board.cache_hierarchy.ruby_system.L1Cache_Controller.M.Inv |        8171      6.47%      6.47% |        7942      6.29%     12.77% |        7928      6.28%     19.05% |        7894      6.25%     25.30% |        7863      6.23%     31.53% |        7844      6.21%     37.75% |        7897      6.26%     44.00% |        7928      6.28%     50.29% |        7831      6.20%     56.49% |        7838      6.21%     62.70% |        7835      6.21%     68.91% |        7843      6.21%     75.12% |        7851      6.22%     81.34% |        7834      6.21%     87.55% |        7831      6.20%     93.76% |        7881      6.24%    100.00% (Unspecified)
board.cache_hierarchy.ruby_system.L1Cache_Controller.M.Inv::total       126211                       (Unspecified)
board.cache_hierarchy.ruby_system.L1Cache_Controller.M.L1_Replacement |      375199    100.00%    100.00% |           0      0.00%    100.00% |           2      0.00%    100.00% |           3      0.00%    100.00% |           0      0.00%    100.00% |           1      0.00%    100.00% |           2      0.00%    100.00% |           2      0.00%    100.00% |           0      0.00%    100.00% |           0      0.00%    100.00% |           1      0.00%    100.00% |           2      0.00%    100.00% |           0      0.00%    100.00% |           0      0.00%    100.00% |           2      0.00%    100.00% |           0      0.00%    100.00% (Unspecified)
board.cache_hierarchy.ruby_system.L1Cache_Controller.M.L1_Replacement::total       375214                       (Unspecified)
board.cache_hierarchy.ruby_system.L1Cache_Controller.M.Fwd_GETX |          75     52.82%     52.82% |           5      3.52%     56.34% |           5      3.52%     59.86% |           5      3.52%     63.38% |           5      3.52%     66.90% |           4      2.82%     69.72% |           5      3.52%     73.24% |           4      2.82%     76.06% |           5      3.52%     79.58% |           5      3.52%     83.10% |           5      3.52%     86.62% |           5      3.52%     90.14% |           5      3.52%     93.66% |           4      2.82%     96.48% |           4      2.82%     99.30% |           1      0.70%    100.00% (Unspecified)
board.cache_hierarchy.ruby_system.L1Cache_Controller.M.Fwd_GETX::total          142                       (Unspecified)
board.cache_hierarchy.ruby_system.L1Cache_Controller.M.Fwd_GETS |         113     97.41%     97.41% |           0      0.00%     97.41% |           0      0.00%     97.41% |           0      0.00%     97.41% |           0      0.00%     97.41% |           0      0.00%     97.41% |           0      0.00%     97.41% |           0      0.00%     97.41% |           0      0.00%     97.41% |           0      0.00%     97.41% |           0      0.00%     97.41% |           0      0.00%     97.41% |           0      0.00%     97.41% |           0      0.00%     97.41% |           2      1.72%     99.14% |           1      0.86%    100.00% (Unspecified)
board.cache_hierarchy.ruby_system.L1Cache_Controller.M.Fwd_GETS::total          116                       (Unspecified)
board.cache_hierarchy.ruby_system.L1Cache_Controller.M.Load_Linked |         113    100.00%    100.00% |           0      0.00%    100.00% |           0      0.00%    100.00% |           0      0.00%    100.00% |           0      0.00%    100.00% |           0      0.00%    100.00% |           0      0.00%    100.00% |           0      0.00%    100.00% |           0      0.00%    100.00% |           0      0.00%    100.00% |           0      0.00%    100.00% |           0      0.00%    100.00% |           0      0.00%    100.00% |           0      0.00%    100.00% |           0      0.00%    100.00% |           0      0.00%    100.00% (Unspecified)
board.cache_hierarchy.ruby_system.L1Cache_Controller.M.Load_Linked::total          113                       (Unspecified)
board.cache_hierarchy.ruby_system.L1Cache_Controller.IS.Data_Exclusive |       17530      6.87%      6.87% |       15847      6.21%     13.08% |       15815      6.20%     19.28% |       15813      6.20%     25.47% |       15812      6.20%     31.67% |       15831      6.20%     37.87% |       15868      6.22%     44.09% |       15868      6.22%     50.31% |       15834      6.20%     56.51% |       15837      6.21%     62.72% |       15865      6.22%     68.93% |       15870      6.22%     75.15% |       15834      6.20%     81.36% |       15836      6.21%     87.56% |       15870      6.22%     93.78% |       15874      6.22%    100.00% (Unspecified)
board.cache_hierarchy.ruby_system.L1Cache_Controller.IS.Data_Exclusive::total       255204                       (Unspecified)
board.cache_hierarchy.ruby_system.L1Cache_Controller.IS.DataS_fromL1 |           1      0.73%      0.73% |          24     17.52%     18.25% |          17     12.41%     30.66% |           8      5.84%     36.50% |           7      5.11%     41.61% |           7      5.11%     46.72% |           7      5.11%     51.82% |           7      5.11%     56.93% |           7      5.11%     62.04% |           7      5.11%     67.15% |           9      6.57%     73.72% |           8      5.84%     79.56% |           7      5.11%     84.67% |           7      5.11%     89.78% |           7      5.11%     94.89% |           7      5.11%    100.00% (Unspecified)
board.cache_hierarchy.ruby_system.L1Cache_Controller.IS.DataS_fromL1::total          137                       (Unspecified)
board.cache_hierarchy.ruby_system.L1Cache_Controller.IS.Data_all_Acks |        2187     20.54%     20.54% |         535      5.03%     25.57% |         548      5.15%     30.72% |         562      5.28%     35.99% |         568      5.34%     41.33% |         568      5.34%     46.67% |         568      5.34%     52.00% |         564      5.30%     57.30% |         568      5.34%     62.63% |         568      5.34%     67.97% |         566      5.32%     73.29% |         567      5.33%     78.61% |         568      5.34%     83.95% |         568      5.34%     89.28% |         573      5.38%     94.66% |         568      5.34%    100.00% (Unspecified)
board.cache_hierarchy.ruby_system.L1Cache_Controller.IS.Data_all_Acks::total        10646                       (Unspecified)
board.cache_hierarchy.ruby_system.L1Cache_Controller.IM.Data_all_Acks |      383399     76.51%     76.51% |        7847      1.57%     78.08% |        7844      1.57%     79.64% |        7846      1.57%     81.21% |        7844      1.57%     82.77% |        7853      1.57%     84.34% |        7847      1.57%     85.91% |        7850      1.57%     87.47% |        7847      1.57%     89.04% |        7848      1.57%     90.60% |        7850      1.57%     92.17% |        7849      1.57%     93.74% |        7847      1.57%     95.30% |        7848      1.57%     96.87% |        7847      1.57%     98.43% |        7845      1.57%    100.00% (Unspecified)
board.cache_hierarchy.ruby_system.L1Cache_Controller.IM.Data_all_Acks::total       501111                       (Unspecified)
board.cache_hierarchy.ruby_system.L1Cache_Controller.IM.LLSC_Data_all_Acks |           6    100.00%    100.00% |           0      0.00%    100.00% |           0      0.00%    100.00% |           0      0.00%    100.00% |           0      0.00%    100.00% |           0      0.00%    100.00% |           0      0.00%    100.00% |           0      0.00%    100.00% |           0      0.00%    100.00% |           0      0.00%    100.00% |           0      0.00%    100.00% |           0      0.00%    100.00% |           0      0.00%    100.00% |           0      0.00%    100.00% |           0      0.00%    100.00% |           0      0.00%    100.00% (Unspecified)
board.cache_hierarchy.ruby_system.L1Cache_Controller.IM.LLSC_Data_all_Acks::total            6                       (Unspecified)
board.cache_hierarchy.ruby_system.L1Cache_Controller.SM.Ack |          15     20.00%     20.00% |           2      2.67%     22.67% |           2      2.67%     25.33% |           2      2.67%     28.00% |           2      2.67%     30.67% |           2      2.67%     33.33% |           2      2.67%     36.00% |           2      2.67%     38.67% |           2      2.67%     41.33% |           2      2.67%     44.00% |           2      2.67%     46.67% |           2      2.67%     49.33% |           2      2.67%     52.00% |           2      2.67%     54.67% |          17     22.67%     77.33% |          17     22.67%    100.00% (Unspecified)
board.cache_hierarchy.ruby_system.L1Cache_Controller.SM.Ack::total           75                       (Unspecified)
board.cache_hierarchy.ruby_system.L1Cache_Controller.SM.Ack_all |          15     31.91%     31.91% |           2      4.26%     36.17% |           2      4.26%     40.43% |           2      4.26%     44.68% |           2      4.26%     48.94% |           2      4.26%     53.19% |           2      4.26%     57.45% |           2      4.26%     61.70% |           2      4.26%     65.96% |           2      4.26%     70.21% |           2      4.26%     74.47% |           2      4.26%     78.72% |           2      4.26%     82.98% |           2      4.26%     87.23% |           3      6.38%     93.62% |           3      6.38%    100.00% (Unspecified)
board.cache_hierarchy.ruby_system.L1Cache_Controller.SM.Ack_all::total           47                       (Unspecified)
board.cache_hierarchy.ruby_system.L1Cache_Controller.M_I.Ifetch |           1    100.00%    100.00% |           0      0.00%    100.00% |           0      0.00%    100.00% |           0      0.00%    100.00% |           0      0.00%    100.00% |           0      0.00%    100.00% |           0      0.00%    100.00% |           0      0.00%    100.00% |           0      0.00%    100.00% |           0      0.00%    100.00% |           0      0.00%    100.00% |           0      0.00%    100.00% |           0      0.00%    100.00% |           0      0.00%    100.00% |           0      0.00%    100.00% |           0      0.00%    100.00% (Unspecified)
board.cache_hierarchy.ruby_system.L1Cache_Controller.M_I.Ifetch::total            1                       (Unspecified)
board.cache_hierarchy.ruby_system.L1Cache_Controller.M_I.Inv |           0      0.00%      0.00% |           0      0.00%      0.00% |           0      0.00%      0.00% |           1    100.00%    100.00% |           0      0.00%    100.00% |           0      0.00%    100.00% |           0      0.00%    100.00% |           0      0.00%    100.00% |           0      0.00%    100.00% |           0      0.00%    100.00% |           0      0.00%    100.00% |           0      0.00%    100.00% |           0      0.00%    100.00% |           0      0.00%    100.00% |           0      0.00%    100.00% |           0      0.00%    100.00% (Unspecified)
board.cache_hierarchy.ruby_system.L1Cache_Controller.M_I.Inv::total            1                       (Unspecified)
board.cache_hierarchy.ruby_system.L1Cache_Controller.M_I.WB_Ack |      376884     98.86%     98.86% |         303      0.08%     98.94% |         320      0.08%     99.02% |         340      0.09%     99.11% |         275      0.07%     99.18% |         251      0.07%     99.25% |         321      0.08%     99.33% |         317      0.08%     99.42% |         280      0.07%     99.49% |         245      0.06%     99.55% |         275      0.07%     99.63% |         354      0.09%     99.72% |         239      0.06%     99.78% |         232      0.06%     99.84% |         291      0.08%     99.92% |         311      0.08%    100.00% (Unspecified)
board.cache_hierarchy.ruby_system.L1Cache_Controller.M_I.WB_Ack::total       381238                       (Unspecified)
board.cache_hierarchy.ruby_system.L1Cache_Controller.SINK_WB_ACK.WB_Ack |           0      0.00%      0.00% |           0      0.00%      0.00% |           0      0.00%      0.00% |           1    100.00%    100.00% |           0      0.00%    100.00% |           0      0.00%    100.00% |           0      0.00%    100.00% |           0      0.00%    100.00% |           0      0.00%    100.00% |           0      0.00%    100.00% |           0      0.00%    100.00% |           0      0.00%    100.00% |           0      0.00%    100.00% |           0      0.00%    100.00% |           0      0.00%    100.00% |           0      0.00%    100.00% (Unspecified)
board.cache_hierarchy.ruby_system.L1Cache_Controller.SINK_WB_ACK.WB_Ack::total            1                       (Unspecified)
board.cache_hierarchy.ruby_system.L1Cache_Controller.LLSC_E.Store |          15    100.00%    100.00% |           0      0.00%    100.00% |           0      0.00%    100.00% |           0      0.00%    100.00% |           0      0.00%    100.00% |           0      0.00%    100.00% |           0      0.00%    100.00% |           0      0.00%    100.00% |           0      0.00%    100.00% |           0      0.00%    100.00% |           0      0.00%    100.00% |           0      0.00%    100.00% |           0      0.00%    100.00% |           0      0.00%    100.00% |           0      0.00%    100.00% |           0      0.00%    100.00% (Unspecified)
board.cache_hierarchy.ruby_system.L1Cache_Controller.LLSC_E.Store::total           15                       (Unspecified)
board.cache_hierarchy.ruby_system.L1Cache_Controller.LLSC_M.Load |          20    100.00%    100.00% |           0      0.00%    100.00% |           0      0.00%    100.00% |           0      0.00%    100.00% |           0      0.00%    100.00% |           0      0.00%    100.00% |           0      0.00%    100.00% |           0      0.00%    100.00% |           0      0.00%    100.00% |           0      0.00%    100.00% |           0      0.00%    100.00% |           0      0.00%    100.00% |           0      0.00%    100.00% |           0      0.00%    100.00% |           0      0.00%    100.00% |           0      0.00%    100.00% (Unspecified)
board.cache_hierarchy.ruby_system.L1Cache_Controller.LLSC_M.Load::total           20                       (Unspecified)
board.cache_hierarchy.ruby_system.L1Cache_Controller.LLSC_M.Store |         121    100.00%    100.00% |           0      0.00%    100.00% |           0      0.00%    100.00% |           0      0.00%    100.00% |           0      0.00%    100.00% |           0      0.00%    100.00% |           0      0.00%    100.00% |           0      0.00%    100.00% |           0      0.00%    100.00% |           0      0.00%    100.00% |           0      0.00%    100.00% |           0      0.00%    100.00% |           0      0.00%    100.00% |           0      0.00%    100.00% |           0      0.00%    100.00% |           0      0.00%    100.00% (Unspecified)
board.cache_hierarchy.ruby_system.L1Cache_Controller.LLSC_M.Store::total          121                       (Unspecified)
board.cache_hierarchy.ruby_system.L1Cache_Controller.LLSC_M.LLSC_Timeout |         128    100.00%    100.00% |           0      0.00%    100.00% |           0      0.00%    100.00% |           0      0.00%    100.00% |           0      0.00%    100.00% |           0      0.00%    100.00% |           0      0.00%    100.00% |           0      0.00%    100.00% |           0      0.00%    100.00% |           0      0.00%    100.00% |           0      0.00%    100.00% |           0      0.00%    100.00% |           0      0.00%    100.00% |           0      0.00%    100.00% |           0      0.00%    100.00% |           0      0.00%    100.00% (Unspecified)
board.cache_hierarchy.ruby_system.L1Cache_Controller.LLSC_M.LLSC_Timeout::total          128                       (Unspecified)
board.cache_hierarchy.ruby_system.L2Cache_Controller.L1_GET_INSTR        10882      0.00%      0.00% (Unspecified)
board.cache_hierarchy.ruby_system.L2Cache_Controller.L1_GETS       256670      0.00%      0.00% (Unspecified)
board.cache_hierarchy.ruby_system.L2Cache_Controller.L1_GETX       501274      0.00%      0.00% (Unspecified)
board.cache_hierarchy.ruby_system.L2Cache_Controller.L1_UPGRADE           47      0.00%      0.00% (Unspecified)
board.cache_hierarchy.ruby_system.L2Cache_Controller.L1_PUTX       381238      0.00%      0.00% (Unspecified)
board.cache_hierarchy.ruby_system.L2Cache_Controller.L1_PUTX_old            2      0.00%      0.00% (Unspecified)
board.cache_hierarchy.ruby_system.L2Cache_Controller.L2_Replacement       375303      0.00%      0.00% (Unspecified)
board.cache_hierarchy.ruby_system.L2Cache_Controller.L2_Replacement_clean       379003      0.00%      0.00% (Unspecified)
board.cache_hierarchy.ruby_system.L2Cache_Controller.Mem_Data       758402      0.00%      0.00% (Unspecified)
board.cache_hierarchy.ruby_system.L2Cache_Controller.Mem_Ack       754306      0.00%      0.00% (Unspecified)
board.cache_hierarchy.ruby_system.L2Cache_Controller.WB_Data       126327      0.00%      0.00% (Unspecified)
board.cache_hierarchy.ruby_system.L2Cache_Controller.WB_Data_clean           22      0.00%      0.00% (Unspecified)
board.cache_hierarchy.ruby_system.L2Cache_Controller.Ack         7812      0.00%      0.00% (Unspecified)
board.cache_hierarchy.ruby_system.L2Cache_Controller.Ack_all       246930      0.00%      0.00% (Unspecified)
board.cache_hierarchy.ruby_system.L2Cache_Controller.Unblock          137      0.00%      0.00% (Unspecified)
board.cache_hierarchy.ruby_system.L2Cache_Controller.Exclusive_Unblock       756368      0.00%      0.00% (Unspecified)
board.cache_hierarchy.ruby_system.L2Cache_Controller.NP.L1_GET_INSTR         2265      0.00%      0.00% (Unspecified)
board.cache_hierarchy.ruby_system.L2Cache_Controller.NP.L1_GETS       255173      0.00%      0.00% (Unspecified)
board.cache_hierarchy.ruby_system.L2Cache_Controller.NP.L1_GETX       500964      0.00%      0.00% (Unspecified)
board.cache_hierarchy.ruby_system.L2Cache_Controller.NP.L1_PUTX_old            1      0.00%      0.00% (Unspecified)
board.cache_hierarchy.ruby_system.L2Cache_Controller.SS.L1_GET_INSTR         3598      0.00%      0.00% (Unspecified)
board.cache_hierarchy.ruby_system.L2Cache_Controller.SS.L1_GETS          460      0.00%      0.00% (Unspecified)
board.cache_hierarchy.ruby_system.L2Cache_Controller.SS.L1_UPGRADE           47      0.00%      0.00% (Unspecified)
board.cache_hierarchy.ruby_system.L2Cache_Controller.SS.L2_Replacement           69      0.00%      0.00% (Unspecified)
board.cache_hierarchy.ruby_system.L2Cache_Controller.SS.L2_Replacement_clean         1834      0.00%      0.00% (Unspecified)
board.cache_hierarchy.ruby_system.L2Cache_Controller.M.L1_GET_INSTR            1      0.00%      0.00% (Unspecified)
board.cache_hierarchy.ruby_system.L2Cache_Controller.M.L1_GETS           35      0.00%      0.00% (Unspecified)
board.cache_hierarchy.ruby_system.L2Cache_Controller.M.L1_GETX           11      0.00%      0.00% (Unspecified)
board.cache_hierarchy.ruby_system.L2Cache_Controller.M.L2_Replacement       375192      0.00%      0.00% (Unspecified)
board.cache_hierarchy.ruby_system.L2Cache_Controller.M.L2_Replacement_clean         5972      0.00%      0.00% (Unspecified)
board.cache_hierarchy.ruby_system.L2Cache_Controller.MT.L1_GETS          137      0.00%      0.00% (Unspecified)
board.cache_hierarchy.ruby_system.L2Cache_Controller.MT.L1_GETX          142      0.00%      0.00% (Unspecified)
board.cache_hierarchy.ruby_system.L2Cache_Controller.MT.L1_PUTX       381238      0.00%      0.00% (Unspecified)
board.cache_hierarchy.ruby_system.L2Cache_Controller.MT.L2_Replacement           42      0.00%      0.00% (Unspecified)
board.cache_hierarchy.ruby_system.L2Cache_Controller.MT.L2_Replacement_clean       371197      0.00%      0.00% (Unspecified)
board.cache_hierarchy.ruby_system.L2Cache_Controller.M_I.L1_GET_INSTR          713      0.00%      0.00% (Unspecified)
board.cache_hierarchy.ruby_system.L2Cache_Controller.M_I.L1_GETS          769      0.00%      0.00% (Unspecified)
board.cache_hierarchy.ruby_system.L2Cache_Controller.M_I.L1_GETX           45      0.00%      0.00% (Unspecified)
board.cache_hierarchy.ruby_system.L2Cache_Controller.M_I.Mem_Ack       754306      0.00%      0.00% (Unspecified)
board.cache_hierarchy.ruby_system.L2Cache_Controller.MT_I.WB_Data           41      0.00%      0.00% (Unspecified)
board.cache_hierarchy.ruby_system.L2Cache_Controller.MT_I.Ack_all            1      0.00%      0.00% (Unspecified)
board.cache_hierarchy.ruby_system.L2Cache_Controller.MCT_I.L1_GETS            1      0.00%      0.00% (Unspecified)
board.cache_hierarchy.ruby_system.L2Cache_Controller.MCT_I.L1_PUTX_old            1      0.00%      0.00% (Unspecified)
board.cache_hierarchy.ruby_system.L2Cache_Controller.MCT_I.WB_Data       126170      0.00%      0.00% (Unspecified)
board.cache_hierarchy.ruby_system.L2Cache_Controller.MCT_I.WB_Data_clean            1      0.00%      0.00% (Unspecified)
board.cache_hierarchy.ruby_system.L2Cache_Controller.MCT_I.Ack_all       245026      0.00%      0.00% (Unspecified)
board.cache_hierarchy.ruby_system.L2Cache_Controller.I_I.L1_GET_INSTR            6      0.00%      0.00% (Unspecified)
board.cache_hierarchy.ruby_system.L2Cache_Controller.I_I.Ack         7618      0.00%      0.00% (Unspecified)
board.cache_hierarchy.ruby_system.L2Cache_Controller.I_I.Ack_all         1834      0.00%      0.00% (Unspecified)
board.cache_hierarchy.ruby_system.L2Cache_Controller.S_I.Ack          194      0.00%      0.00% (Unspecified)
board.cache_hierarchy.ruby_system.L2Cache_Controller.S_I.Ack_all           69      0.00%      0.00% (Unspecified)
board.cache_hierarchy.ruby_system.L2Cache_Controller.ISS.L1_GETS            4      0.00%      0.00% (Unspecified)
board.cache_hierarchy.ruby_system.L2Cache_Controller.ISS.Mem_Data       255169      0.00%      0.00% (Unspecified)
board.cache_hierarchy.ruby_system.L2Cache_Controller.IS.L1_GET_INSTR         4299      0.00%      0.00% (Unspecified)
board.cache_hierarchy.ruby_system.L2Cache_Controller.IS.L1_GETS           15      0.00%      0.00% (Unspecified)
board.cache_hierarchy.ruby_system.L2Cache_Controller.IS.Mem_Data         2269      0.00%      0.00% (Unspecified)
board.cache_hierarchy.ruby_system.L2Cache_Controller.IM.L1_GETX           14      0.00%      0.00% (Unspecified)
board.cache_hierarchy.ruby_system.L2Cache_Controller.IM.Mem_Data       500964      0.00%      0.00% (Unspecified)
board.cache_hierarchy.ruby_system.L2Cache_Controller.SS_MB.L1_GETS           12      0.00%      0.00% (Unspecified)
board.cache_hierarchy.ruby_system.L2Cache_Controller.SS_MB.Exclusive_Unblock           47      0.00%      0.00% (Unspecified)
board.cache_hierarchy.ruby_system.L2Cache_Controller.MT_MB.L1_GETS           12      0.00%      0.00% (Unspecified)
board.cache_hierarchy.ruby_system.L2Cache_Controller.MT_MB.L1_GETX           98      0.00%      0.00% (Unspecified)
board.cache_hierarchy.ruby_system.L2Cache_Controller.MT_MB.Exclusive_Unblock       756321      0.00%      0.00% (Unspecified)
board.cache_hierarchy.ruby_system.L2Cache_Controller.MT_IIB.L1_GETS           52      0.00%      0.00% (Unspecified)
board.cache_hierarchy.ruby_system.L2Cache_Controller.MT_IIB.WB_Data          115      0.00%      0.00% (Unspecified)
board.cache_hierarchy.ruby_system.L2Cache_Controller.MT_IIB.WB_Data_clean           20      0.00%      0.00% (Unspecified)
board.cache_hierarchy.ruby_system.L2Cache_Controller.MT_IIB.Unblock            2      0.00%      0.00% (Unspecified)
board.cache_hierarchy.ruby_system.L2Cache_Controller.MT_IB.WB_Data            1      0.00%      0.00% (Unspecified)
board.cache_hierarchy.ruby_system.L2Cache_Controller.MT_IB.WB_Data_clean            1      0.00%      0.00% (Unspecified)
board.cache_hierarchy.ruby_system.L2Cache_Controller.MT_SB.Unblock          135      0.00%      0.00% (Unspecified)
board.cache_hierarchy.ruby_system.RequestType.LD.latency_hist_seqr::bucket_size          256                       (Unspecified)
board.cache_hierarchy.ruby_system.RequestType.LD.latency_hist_seqr::max_bucket         2559                       (Unspecified)
board.cache_hierarchy.ruby_system.RequestType.LD.latency_hist_seqr::samples     24514814                       (Unspecified)
board.cache_hierarchy.ruby_system.RequestType.LD.latency_hist_seqr::mean     5.029264                       (Unspecified)
board.cache_hierarchy.ruby_system.RequestType.LD.latency_hist_seqr::gmean     1.063255                       (Unspecified)
board.cache_hierarchy.ruby_system.RequestType.LD.latency_hist_seqr::stdev    43.158532                       (Unspecified)
board.cache_hierarchy.ruby_system.RequestType.LD.latency_hist_seqr |    24292480     99.09%     99.09% |      176678      0.72%     99.81% |       39195      0.16%     99.97% |        2009      0.01%     99.98% |        2649      0.01%     99.99% |        1657      0.01%    100.00% |         143      0.00%    100.00% |           3      0.00%    100.00% |           0      0.00%    100.00% |           0      0.00%    100.00% (Unspecified)
board.cache_hierarchy.ruby_system.RequestType.LD.latency_hist_seqr::total     24514814                       (Unspecified)
board.cache_hierarchy.ruby_system.RequestType.LD.hit_latency_hist_seqr::bucket_size            1                       (Unspecified)
board.cache_hierarchy.ruby_system.RequestType.LD.hit_latency_hist_seqr::max_bucket            9                       (Unspecified)
board.cache_hierarchy.ruby_system.RequestType.LD.hit_latency_hist_seqr::samples     24258990                       (Unspecified)
board.cache_hierarchy.ruby_system.RequestType.LD.hit_latency_hist_seqr::mean            1                       (Unspecified)
board.cache_hierarchy.ruby_system.RequestType.LD.hit_latency_hist_seqr::gmean            1                       (Unspecified)
board.cache_hierarchy.ruby_system.RequestType.LD.hit_latency_hist_seqr |           0      0.00%      0.00% |    24258990    100.00%    100.00% |           0      0.00%    100.00% |           0      0.00%    100.00% |           0      0.00%    100.00% |           0      0.00%    100.00% |           0      0.00%    100.00% |           0      0.00%    100.00% |           0      0.00%    100.00% |           0      0.00%    100.00% (Unspecified)
board.cache_hierarchy.ruby_system.RequestType.LD.hit_latency_hist_seqr::total     24258990                       (Unspecified)
board.cache_hierarchy.ruby_system.RequestType.LD.miss_latency_hist_seqr::bucket_size          256                       (Unspecified)
board.cache_hierarchy.ruby_system.RequestType.LD.miss_latency_hist_seqr::max_bucket         2559                       (Unspecified)
board.cache_hierarchy.ruby_system.RequestType.LD.miss_latency_hist_seqr::samples       255824                       (Unspecified)
board.cache_hierarchy.ruby_system.RequestType.LD.miss_latency_hist_seqr::mean   387.111757                       (Unspecified)
board.cache_hierarchy.ruby_system.RequestType.LD.miss_latency_hist_seqr::gmean   356.925710                       (Unspecified)
board.cache_hierarchy.ruby_system.RequestType.LD.miss_latency_hist_seqr::stdev   175.972572                       (Unspecified)
board.cache_hierarchy.ruby_system.RequestType.LD.miss_latency_hist_seqr |       33490     13.09%     13.09% |      176678     69.06%     82.15% |       39195     15.32%     97.47% |        2009      0.79%     98.26% |        2649      1.04%     99.30% |        1657      0.65%     99.94% |         143      0.06%    100.00% |           3      0.00%    100.00% |           0      0.00%    100.00% |           0      0.00%    100.00% (Unspecified)
board.cache_hierarchy.ruby_system.RequestType.LD.miss_latency_hist_seqr::total       255824                       (Unspecified)
board.cache_hierarchy.ruby_system.RequestType.ST.latency_hist_seqr::bucket_size          256                       (Unspecified)
board.cache_hierarchy.ruby_system.RequestType.ST.latency_hist_seqr::max_bucket         2559                       (Unspecified)
board.cache_hierarchy.ruby_system.RequestType.ST.latency_hist_seqr::samples      7705857                       (Unspecified)
board.cache_hierarchy.ruby_system.RequestType.ST.latency_hist_seqr::mean    16.427029                       (Unspecified)
board.cache_hierarchy.ruby_system.RequestType.ST.latency_hist_seqr::gmean     1.463343                       (Unspecified)
board.cache_hierarchy.ruby_system.RequestType.ST.latency_hist_seqr::stdev    71.063169                       (Unspecified)
board.cache_hierarchy.ruby_system.RequestType.ST.latency_hist_seqr |     7572806     98.27%     98.27% |       88623      1.15%     99.42% |       37374      0.49%     99.91% |        4916      0.06%     99.97% |        1156      0.02%     99.99% |         724      0.01%    100.00% |         256      0.00%    100.00% |           2      0.00%    100.00% |           0      0.00%    100.00% |           0      0.00%    100.00% (Unspecified)
board.cache_hierarchy.ruby_system.RequestType.ST.latency_hist_seqr::total      7705857                       (Unspecified)
board.cache_hierarchy.ruby_system.RequestType.ST.hit_latency_hist_seqr::bucket_size           64                       (Unspecified)
board.cache_hierarchy.ruby_system.RequestType.ST.hit_latency_hist_seqr::max_bucket          639                       (Unspecified)
board.cache_hierarchy.ruby_system.RequestType.ST.hit_latency_hist_seqr::samples      7204699                       (Unspecified)
board.cache_hierarchy.ruby_system.RequestType.ST.hit_latency_hist_seqr::mean     1.053262                       (Unspecified)
board.cache_hierarchy.ruby_system.RequestType.ST.hit_latency_hist_seqr::gmean     1.036787                       (Unspecified)
board.cache_hierarchy.ruby_system.RequestType.ST.hit_latency_hist_seqr::stdev     0.527176                       (Unspecified)
board.cache_hierarchy.ruby_system.RequestType.ST.hit_latency_hist_seqr |     7204608    100.00%    100.00% |          83      0.00%    100.00% |           0      0.00%    100.00% |           0      0.00%    100.00% |           0      0.00%    100.00% |           3      0.00%    100.00% |           5      0.00%    100.00% |           0      0.00%    100.00% |           0      0.00%    100.00% |           0      0.00%    100.00% (Unspecified)
board.cache_hierarchy.ruby_system.RequestType.ST.hit_latency_hist_seqr::total      7204699                       (Unspecified)
board.cache_hierarchy.ruby_system.RequestType.ST.miss_latency_hist_seqr::bucket_size          256                       (Unspecified)
board.cache_hierarchy.ruby_system.RequestType.ST.miss_latency_hist_seqr::max_bucket         2559                       (Unspecified)
board.cache_hierarchy.ruby_system.RequestType.ST.miss_latency_hist_seqr::samples       501158                       (Unspecified)
board.cache_hierarchy.ruby_system.RequestType.ST.miss_latency_hist_seqr::mean   237.441885                       (Unspecified)
board.cache_hierarchy.ruby_system.RequestType.ST.miss_latency_hist_seqr::gmean   207.406738                       (Unspecified)
board.cache_hierarchy.ruby_system.RequestType.ST.miss_latency_hist_seqr::stdev   159.372419                       (Unspecified)
board.cache_hierarchy.ruby_system.RequestType.ST.miss_latency_hist_seqr |      368115     73.45%     73.45% |       88615     17.68%     91.13% |       37374      7.46%     98.59% |        4916      0.98%     99.57% |        1156      0.23%     99.80% |         724      0.14%     99.95% |         256      0.05%    100.00% |           2      0.00%    100.00% |           0      0.00%    100.00% |           0      0.00%    100.00% (Unspecified)
board.cache_hierarchy.ruby_system.RequestType.ST.miss_latency_hist_seqr::total       501158                       (Unspecified)
board.cache_hierarchy.ruby_system.RequestType.IFETCH.latency_hist_seqr::bucket_size          256                       (Unspecified)
board.cache_hierarchy.ruby_system.RequestType.IFETCH.latency_hist_seqr::max_bucket         2559                       (Unspecified)
board.cache_hierarchy.ruby_system.RequestType.IFETCH.latency_hist_seqr::samples     17068238                       (Unspecified)
board.cache_hierarchy.ruby_system.RequestType.IFETCH.latency_hist_seqr::mean     1.100550                       (Unspecified)
board.cache_hierarchy.ruby_system.RequestType.IFETCH.latency_hist_seqr::gmean     1.002665                       (Unspecified)
board.cache_hierarchy.ruby_system.RequestType.IFETCH.latency_hist_seqr::stdev     5.909358                       (Unspecified)
board.cache_hierarchy.ruby_system.RequestType.IFETCH.latency_hist_seqr |    17065827     99.99%     99.99% |        1951      0.01%    100.00% |         398      0.00%    100.00% |          22      0.00%    100.00% |          24      0.00%    100.00% |          16      0.00%    100.00% |           0      0.00%    100.00% |           0      0.00%    100.00% |           0      0.00%    100.00% |           0      0.00%    100.00% (Unspecified)
board.cache_hierarchy.ruby_system.RequestType.IFETCH.latency_hist_seqr::total     17068238                       (Unspecified)
board.cache_hierarchy.ruby_system.RequestType.IFETCH.hit_latency_hist_seqr::bucket_size            1                       (Unspecified)
board.cache_hierarchy.ruby_system.RequestType.IFETCH.hit_latency_hist_seqr::max_bucket            9                       (Unspecified)
board.cache_hierarchy.ruby_system.RequestType.IFETCH.hit_latency_hist_seqr::samples     17058075                       (Unspecified)
board.cache_hierarchy.ruby_system.RequestType.IFETCH.hit_latency_hist_seqr::mean            1                       (Unspecified)
board.cache_hierarchy.ruby_system.RequestType.IFETCH.hit_latency_hist_seqr::gmean            1                       (Unspecified)
board.cache_hierarchy.ruby_system.RequestType.IFETCH.hit_latency_hist_seqr |           0      0.00%      0.00% |    17058075    100.00%    100.00% |           0      0.00%    100.00% |           0      0.00%    100.00% |           0      0.00%    100.00% |           0      0.00%    100.00% |           0      0.00%    100.00% |           0      0.00%    100.00% |           0      0.00%    100.00% |           0      0.00%    100.00% (Unspecified)
board.cache_hierarchy.ruby_system.RequestType.IFETCH.hit_latency_hist_seqr::total     17058075                       (Unspecified)
board.cache_hierarchy.ruby_system.RequestType.IFETCH.miss_latency_hist_seqr::bucket_size          256                       (Unspecified)
board.cache_hierarchy.ruby_system.RequestType.IFETCH.miss_latency_hist_seqr::max_bucket         2559                       (Unspecified)
board.cache_hierarchy.ruby_system.RequestType.IFETCH.miss_latency_hist_seqr::samples        10163                       (Unspecified)
board.cache_hierarchy.ruby_system.RequestType.IFETCH.miss_latency_hist_seqr::mean   169.867854                       (Unspecified)
board.cache_hierarchy.ruby_system.RequestType.IFETCH.miss_latency_hist_seqr::gmean    87.373006                       (Unspecified)
board.cache_hierarchy.ruby_system.RequestType.IFETCH.miss_latency_hist_seqr::stdev   173.639844                       (Unspecified)
board.cache_hierarchy.ruby_system.RequestType.IFETCH.miss_latency_hist_seqr |        7752     76.28%     76.28% |        1951     19.20%     95.47% |         398      3.92%     99.39% |          22      0.22%     99.61% |          24      0.24%     99.84% |          16      0.16%    100.00% |           0      0.00%    100.00% |           0      0.00%    100.00% |           0      0.00%    100.00% |           0      0.00%    100.00% (Unspecified)
board.cache_hierarchy.ruby_system.RequestType.IFETCH.miss_latency_hist_seqr::total        10163                       (Unspecified)
board.cache_hierarchy.ruby_system.RequestType.Load_Linked.latency_hist_seqr::bucket_size           32                       (Unspecified)
board.cache_hierarchy.ruby_system.RequestType.Load_Linked.latency_hist_seqr::max_bucket          319                       (Unspecified)
board.cache_hierarchy.ruby_system.RequestType.Load_Linked.latency_hist_seqr::samples          128                       (Unspecified)
board.cache_hierarchy.ruby_system.RequestType.Load_Linked.latency_hist_seqr::mean     9.476562                       (Unspecified)
board.cache_hierarchy.ruby_system.RequestType.Load_Linked.latency_hist_seqr::gmean     1.275227                       (Unspecified)
board.cache_hierarchy.ruby_system.RequestType.Load_Linked.latency_hist_seqr::stdev    39.066865                       (Unspecified)
board.cache_hierarchy.ruby_system.RequestType.Load_Linked.latency_hist_seqr |         122     95.31%     95.31% |           0      0.00%     95.31% |           0      0.00%     95.31% |           0      0.00%     95.31% |           3      2.34%     97.66% |           1      0.78%     98.44% |           1      0.78%     99.22% |           1      0.78%    100.00% |           0      0.00%    100.00% |           0      0.00%    100.00% (Unspecified)
board.cache_hierarchy.ruby_system.RequestType.Load_Linked.latency_hist_seqr::total          128                       (Unspecified)
board.cache_hierarchy.ruby_system.RequestType.Load_Linked.hit_latency_hist_seqr::bucket_size            1                       (Unspecified)
board.cache_hierarchy.ruby_system.RequestType.Load_Linked.hit_latency_hist_seqr::max_bucket            9                       (Unspecified)
board.cache_hierarchy.ruby_system.RequestType.Load_Linked.hit_latency_hist_seqr::samples          122                       (Unspecified)
board.cache_hierarchy.ruby_system.RequestType.Load_Linked.hit_latency_hist_seqr::mean            1                       (Unspecified)
board.cache_hierarchy.ruby_system.RequestType.Load_Linked.hit_latency_hist_seqr::gmean            1                       (Unspecified)
[...]
board.processor.cores9.core.commitStats0.committedInstType::SimdDotProd            0      0.00%     45.00% # Class of committed instruction. (Count)
board.processor.cores9.core.commitStats0.committedInstType::Matrix            0      0.00%     45.00% # Class of committed instruction. (Count)
board.processor.cores9.core.commitStats0.committedInstType::MatrixMov            0      0.00%     45.00% # Class of committed instruction. (Count)
board.processor.cores9.core.commitStats0.committedInstType::MatrixOP            0      0.00%     45.00% # Class of committed instruction. (Count)
board.processor.cores9.core.commitStats0.committedInstType::MemRead       536592     34.32%     79.33% # Class of committed instruction. (Count)
board.processor.cores9.core.commitStats0.committedInstType::MemWrite        73126      4.68%     84.01% # Class of committed instruction. (Count)
board.processor.cores9.core.commitStats0.committedInstType::FloatMemRead       187501     11.99%     96.00% # Class of committed instruction. (Count)
board.processor.cores9.core.commitStats0.committedInstType::FloatMemWrite        62513      4.00%    100.00% # Class of committed instruction. (Count)
board.processor.cores9.core.commitStats0.committedInstType::InstPrefetch            0      0.00%    100.00% # Class of committed instruction. (Count)
board.processor.cores9.core.commitStats0.committedInstType::SimdUnitStrideLoad            0      0.00%    100.00% # Class of committed instruction. (Count)
board.processor.cores9.core.commitStats0.committedInstType::SimdUnitStrideStore            0      0.00%    100.00% # Class of committed instruction. (Count)
board.processor.cores9.core.commitStats0.committedInstType::SimdUnitStrideMaskLoad            0      0.00%    100.00% # Class of committed instruction. (Count)
board.processor.cores9.core.commitStats0.committedInstType::SimdUnitStrideMaskStore            0      0.00%    100.00% # Class of committed instruction. (Count)
board.processor.cores9.core.commitStats0.committedInstType::SimdStridedLoad            0      0.00%    100.00% # Class of committed instruction. (Count)
board.processor.cores9.core.commitStats0.committedInstType::SimdStridedStore            0      0.00%    100.00% # Class of committed instruction. (Count)
board.processor.cores9.core.commitStats0.committedInstType::SimdIndexedLoad            0      0.00%    100.00% # Class of committed instruction. (Count)
board.processor.cores9.core.commitStats0.committedInstType::SimdIndexedStore            0      0.00%    100.00% # Class of committed instruction. (Count)
board.processor.cores9.core.commitStats0.committedInstType::SimdWholeRegisterLoad            0      0.00%    100.00% # Class of committed instruction. (Count)
board.processor.cores9.core.commitStats0.committedInstType::SimdWholeRegisterStore            0      0.00%    100.00% # Class of committed instruction. (Count)
board.processor.cores9.core.commitStats0.committedInstType::SimdUnitStrideFaultOnlyFirstLoad            0      0.00%    100.00% # Class of committed instruction. (Count)
board.processor.cores9.core.commitStats0.committedInstType::SimdUnitStrideSegmentedLoad            0      0.00%    100.00% # Class of committed instruction. (Count)
board.processor.cores9.core.commitStats0.committedInstType::SimdUnitStrideSegmentedStore            0      0.00%    100.00% # Class of committed instruction. (Count)
board.processor.cores9.core.commitStats0.committedInstType::SimdUnitStrideSegmentedFaultOnlyFirstLoad            0      0.00%    100.00% # Class of committed instruction. (Count)
board.processor.cores9.core.commitStats0.committedInstType::SimdStrideSegmentedLoad            0      0.00%    100.00% # Class of committed instruction. (Count)
board.processor.cores9.core.commitStats0.committedInstType::SimdStrideSegmentedStore            0      0.00%    100.00% # Class of committed instruction. (Count)
board.processor.cores9.core.commitStats0.committedInstType::SimdExt            0      0.00%    100.00% # Class of committed instruction. (Count)
board.processor.cores9.core.commitStats0.committedInstType::SimdFloatExt            0      0.00%    100.00% # Class of committed instruction. (Count)
board.processor.cores9.core.commitStats0.committedInstType::SimdConfig            0      0.00%    100.00% # Class of committed instruction. (Count)
board.processor.cores9.core.commitStats0.committedInstType::SimdBf16Add            0      0.00%    100.00% # Class of committed instruction. (Count)
board.processor.cores9.core.commitStats0.committedInstType::SimdBf16Cmp            0      0.00%    100.00% # Class of committed instruction. (Count)
board.processor.cores9.core.commitStats0.committedInstType::SimdBf16Cvt            0      0.00%    100.00% # Class of committed instruction. (Count)
board.processor.cores9.core.commitStats0.committedInstType::SimdBf16DotProd            0      0.00%    100.00% # Class of committed instruction. (Count)
board.processor.cores9.core.commitStats0.committedInstType::SimdBf16MatMultAcc            0      0.00%    100.00% # Class of committed instruction. (Count)
board.processor.cores9.core.commitStats0.committedInstType::SimdBf16Mult            0      0.00%    100.00% # Class of committed instruction. (Count)
board.processor.cores9.core.commitStats0.committedInstType::SimdBf16MultAcc            0      0.00%    100.00% # Class of committed instruction. (Count)
board.processor.cores9.core.commitStats0.committedInstType::Bf16Cvt            0      0.00%    100.00% # Class of committed instruction. (Count)
board.processor.cores9.core.commitStats0.committedInstType::System            0      0.00%    100.00% # Class of committed instruction. (Count)
board.processor.cores9.core.commitStats0.committedInstType::total      1563277                       # Class of committed instruction. (Count)
board.processor.cores9.core.commitStats0.committedControl::IsControl        83425                       # Class of control type instructions committed (Count)
board.processor.cores9.core.commitStats0.committedControl::IsDirectControl        78208                       # Class of control type instructions committed (Count)
board.processor.cores9.core.commitStats0.committedControl::IsIndirectControl         5217                       # Class of control type instructions committed (Count)
board.processor.cores9.core.commitStats0.committedControl::IsCondControl        72973                       # Class of control type instructions committed (Count)
board.processor.cores9.core.commitStats0.committedControl::IsUncondControl        10452                       # Class of control type instructions committed (Count)
board.processor.cores9.core.commitStats0.committedControl::IsCall         5220                       # Class of control type instructions committed (Count)
board.processor.cores9.core.commitStats0.committedControl::IsReturn         5212                       # Class of control type instructions committed (Count)
board.processor.cores9.core.commitStats0.functionCalls         5220                       # Number of function calls committed (Count)
board.processor.cores9.core.commitStats0.numCallsReturns        10432                       # Number of function calls and returns committed (Count)
board.processor.cores9.core.executeStats0.numInsts      1563270                       # Number of executed instructions (Count)
board.processor.cores9.core.executeStats0.numNop            0                       # Number of nop insts executed (Count)
board.processor.cores9.core.executeStats0.numBranches        83425                       # Number of branches executed (Count)
board.processor.cores9.core.executeStats0.numLoadInsts       724089                       # Number of load instructions executed (Count)
board.processor.cores9.core.executeStats0.numStoreInsts       135643                       # Number of stores executed (Count)
board.processor.cores9.core.executeStats0.instRate     0.144492                       # Inst execution rate ((Count/Cycle))
board.processor.cores9.core.executeStats0.numFpAluAccesses       375014                       # Number of float alu accesses (Count)
board.processor.cores9.core.executeStats0.numFpRegReads       312513                       # Number of times the floating registers were read (Count)
board.processor.cores9.core.executeStats0.numFpRegWrites       312501                       # Number of times the floating registers were written (Count)
board.processor.cores9.core.executeStats0.numIntAluAccesses      1438560                       # Number of integer alu accesses (Count)
board.processor.cores9.core.executeStats0.numIntRegReads      1761495                       # Number of times the integer registers were read (Count)
board.processor.cores9.core.executeStats0.numIntRegWrites      1031734                       # Number of times the integer registers were written (Count)
board.processor.cores9.core.executeStats0.numMemRefs       859732                       # Number of memory refs (Count)
board.processor.cores9.core.executeStats0.numVecAluAccesses            0                       # Number of vector alu accesses (Count)
board.processor.cores9.core.executeStats0.numDiscardedOps          318                       # Number of ops (including micro ops) which were discarded before commit (Count)
board.processor.cores9.core.fetch2.totalInstructions      1564651                       # Total number of instructions successfully decoded (Count)
board.processor.cores9.core.fetch2.intInstructions       579300                       # Number of integer instructions successfully decoded (Count)
board.processor.cores9.core.fetch2.fpInstructions       125002                       # Number of floating point instructions successfully decoded (Count)
board.processor.cores9.core.fetch2.vecInstructions            0                       # Number of SIMD instructions successfully decoded (Count)
board.processor.cores9.core.fetch2.loadInstructions       724525                       # Number of memory load instructions successfully decoded (Count)
board.processor.cores9.core.fetch2.storeInstructions       135764                       # Number of memory store instructions successfully decoded (Count)
board.processor.cores9.core.fetch2.amoInstructions            0                       # Number of memory atomic instructions successfully decoded (Count)
board.processor.cores9.core.fetchStats0.numInsts      1564651                       # Number of instructions fetched (thread level) (Count)
board.processor.cores9.core.fetchStats0.numOps            0                       # Number of ops (including micro ops) fetched (thread level) (Count)
board.processor.cores9.core.fetchStats0.fetchRate     0.144619                       # Number of inst fetches per cycle ((Count/Cycle))
board.processor.cores9.core.fetchStats0.numBranches        83685                       # Number of branches fetched (Count)
board.processor.cores9.core.fetchStats0.branchRate     0.007735                       # Number of branch fetches per cycle (Ratio)
board.processor.cores9.core.fetchStats0.numFetchSuspends            0                       # Number of times Execute suspended instruction fetching (Count)
board.processor.cores9.core.mmu.dtb.readHits            0                       # read hits (Count)
board.processor.cores9.core.mmu.dtb.readMisses            0                       # read misses (Count)
board.processor.cores9.core.mmu.dtb.readAccesses            0                       # read accesses (Count)
board.processor.cores9.core.mmu.dtb.writeHits            0                       # write hits (Count)
board.processor.cores9.core.mmu.dtb.writeMisses            0                       # write misses (Count)
board.processor.cores9.core.mmu.dtb.writeAccesses            0                       # write accesses (Count)
board.processor.cores9.core.mmu.dtb.hits            0                       # Total TLB (read and write) hits (Count)
board.processor.cores9.core.mmu.dtb.misses            0                       # Total TLB (read and write) misses (Count)
board.processor.cores9.core.mmu.dtb.accesses            0                       # Total TLB (read and write) accesses (Count)
board.processor.cores9.core.mmu.dtb.walker.num_4kb_walks            0                       # Completed page walks with 4KB pages (Count)
board.processor.cores9.core.mmu.dtb.walker.num_64kb_walks            0                       # Completed page walks with 64KB pages (Count)
board.processor.cores9.core.mmu.dtb.walker.num_2mb_walks            0                       # Completed page walks with 2MB pages (Count)
board.processor.cores9.core.mmu.dtb.walker.power_state.pwrStateResidencyTicks::UNDEFINED  39522264507                       # Cumulative time (in ticks) in various power states (Tick)
board.processor.cores9.core.mmu.itb.readHits            0                       # read hits (Count)
board.processor.cores9.core.mmu.itb.readMisses            0                       # read misses (Count)
board.processor.cores9.core.mmu.itb.readAccesses            0                       # read accesses (Count)
board.processor.cores9.core.mmu.itb.writeHits            0                       # write hits (Count)
board.processor.cores9.core.mmu.itb.writeMisses            0                       # write misses (Count)
board.processor.cores9.core.mmu.itb.writeAccesses            0                       # write accesses (Count)
board.processor.cores9.core.mmu.itb.hits            0                       # Total TLB (read and write) hits (Count)
board.processor.cores9.core.mmu.itb.misses            0                       # Total TLB (read and write) misses (Count)
board.processor.cores9.core.mmu.itb.accesses            0                       # Total TLB (read and write) accesses (Count)
board.processor.cores9.core.mmu.itb.walker.num_4kb_walks            0                       # Completed page walks with 4KB pages (Count)
board.processor.cores9.core.mmu.itb.walker.num_64kb_walks            0                       # Completed page walks with 64KB pages (Count)
board.processor.cores9.core.mmu.itb.walker.num_2mb_walks            0                       # Completed page walks with 2MB pages (Count)
board.processor.cores9.core.mmu.itb.walker.power_state.pwrStateResidencyTicks::UNDEFINED  39522264507                       # Cumulative time (in ticks) in various power states (Tick)
board.processor.cores9.core.power_state.pwrStateResidencyTicks::ON  39522264507                       # Cumulative time (in ticks) in various power states (Tick)
board.processor.cores9.core.thread_0.numInsts      1563270                       # Number of Instructions committed (Count)
board.processor.cores9.core.thread_0.numOps      1563277                       # Number of Ops committed (Count)
board.processor.cores9.core.thread_0.numMemRefs       859732                       # Number of Memory References (Count)
board.workload.inst.arm                             0                       # number of arm instructions executed (Count)
board.workload.inst.quiesce                         0                       # number of quiesce instructions executed (Count)
board.processor.cores00.core.idleCycles      75006491                       # Total number of cycles that the object has spent stopped (Unspecified)
board.processor.cores00.core.tickCycles      43678988                       # Number of cycles that the object actually ticked (Unspecified)
board.processor.cores01.core.idleCycles       8735784                       # Total number of cycles that the object has spent stopped (Unspecified)
board.processor.cores01.core.tickCycles       2135393                       # Number of cycles that the object actually ticked (Unspecified)
board.processor.cores02.core.idleCycles       8703093                       # Total number of cycles that the object has spent stopped (Unspecified)
board.processor.cores02.core.tickCycles       2159191                       # Number of cycles that the object actually ticked (Unspecified)
board.processor.cores03.core.idleCycles       8728702                       # Total number of cycles that the object has spent stopped (Unspecified)
board.processor.cores03.core.tickCycles       2126988                       # Number of cycles that the object actually ticked (Unspecified)
board.processor.cores04.core.idleCycles       8756988                       # Total number of cycles that the object has spent stopped (Unspecified)
board.processor.cores04.core.tickCycles       2091181                       # Number of cycles that the object actually ticked (Unspecified)
board.processor.cores05.core.idleCycles       8800786                       # Total number of cycles that the object has spent stopped (Unspecified)
board.processor.cores05.core.tickCycles       2041417                       # Number of cycles that the object actually ticked (Unspecified)
board.processor.cores06.core.idleCycles       8769994                       # Total number of cycles that the object has spent stopped (Unspecified)
board.processor.cores06.core.tickCycles       2066694                       # Number of cycles that the object actually ticked (Unspecified)
board.processor.cores07.core.idleCycles       8721359                       # Total number of cycles that the object has spent stopped (Unspecified)
board.processor.cores07.core.tickCycles       2109765                       # Number of cycles that the object actually ticked (Unspecified)
board.processor.cores08.core.idleCycles       8787480                       # Total number of cycles that the object has spent stopped (Unspecified)
board.processor.cores08.core.tickCycles       2037920                       # Number of cycles that the object actually ticked (Unspecified)
board.processor.cores09.core.idleCycles       8789737                       # Total number of cycles that the object has spent stopped (Unspecified)
board.processor.cores09.core.tickCycles       2029369                       # Number of cycles that the object actually ticked (Unspecified)
board.processor.cores10.core.idleCycles       8795918                       # Total number of cycles that the object has spent stopped (Unspecified)
board.processor.cores10.core.tickCycles       2017753                       # Number of cycles that the object actually ticked (Unspecified)
board.processor.cores11.core.idleCycles       8797366                       # Total number of cycles that the object has spent stopped (Unspecified)
board.processor.cores11.core.tickCycles       2010542                       # Number of cycles that the object actually ticked (Unspecified)
board.processor.cores12.core.idleCycles       8774114                       # Total number of cycles that the object has spent stopped (Unspecified)
board.processor.cores12.core.tickCycles       2028319                       # Number of cycles that the object actually ticked (Unspecified)
board.processor.cores13.core.idleCycles       8802244                       # Total number of cycles that the object has spent stopped (Unspecified)
board.processor.cores13.core.tickCycles       1994312                       # Number of cycles that the object actually ticked (Unspecified)
board.processor.cores14.core.idleCycles       8810516                       # Total number of cycles that the object has spent stopped (Unspecified)
board.processor.cores14.core.tickCycles       1980456                       # Number of cycles that the object actually ticked (Unspecified)
board.processor.cores15.core.idleCycles       8778675                       # Total number of cycles that the object has spent stopped (Unspecified)
board.processor.cores15.core.tickCycles       2007590                       # Number of cycles that the object actually ticked (Unspecified)

---------- End Simulation Statistics   ----------
