
---------- Begin Simulation Statistics ----------
simSeconds                                   0.038493                       # Number of seconds simulated (Second)
simTicks                                  38492848953                       # Number of ticks simulated (Tick)
finalTick                                 38492848953                       # Number of ticks from beginning of simulation (restored from checkpoints and never reset) (Tick)
simFreq                                  1000000000000                       # The number of ticks per simulated second ((Tick/Second))
hostSeconds                                    337.08                       # Real time elapsed on the host (Second)
hostTickRate                                114193870                       # The number of ticks simulated per host second (ticks/s) ((Tick/Second))
hostMemory                                    2726536                       # Number of bytes of host memory used (Byte)
simInsts                                     61442395                       # Number of instructions simulated (Count)
simOps                                       61442769                       # Number of ops (including micro ops) simulated (Count)
hostInstRate                                   182276                       # Simulator instruction rate (inst/s) ((Count/Second))
hostOpRate                                     182278                       # Simulator op (including micro ops) rate (op/s) ((Count/Second))
board.cache_hierarchy.ruby_system.delayHistogram::bucket_size          512                       # delay histogram for all message (Unspecified)
board.cache_hierarchy.ruby_system.delayHistogram::max_bucket         5119                       # delay histogram for all message (Unspecified)
board.cache_hierarchy.ruby_system.delayHistogram::samples      5328329                       # delay histogram for all message (Unspecified)
board.cache_hierarchy.ruby_system.delayHistogram::mean     0.924485                       # delay histogram for all message (Unspecified)
board.cache_hierarchy.ruby_system.delayHistogram::stdev     3.946104                       # delay histogram for all message (Unspecified)
board.cache_hierarchy.ruby_system.delayHistogram |     5328318    100.00%    100.00% |           2      0.00%    100.00% |           2      0.00%    100.00% |           2      0.00%    100.00% |           2      0.00%    100.00% |           2      0.00%    100.00% |           1      0.00%    100.00% |           0      0.00%    100.00% |           0      0.00%    100.00% |           0      0.00%    100.00% # delay histogram for all message (Unspecified)
board.cache_hierarchy.ruby_system.delayHistogram::total      5328329                       # delay histogram for all message (Unspecified)
board.cache_hierarchy.ruby_system.m_outstandReqHistSeqr::bucket_size            1                       (Unspecified)
board.cache_hierarchy.ruby_system.m_outstandReqHistSeqr::max_bucket            9                       (Unspecified)
board.cache_hierarchy.ruby_system.m_outstandReqHistSeqr::samples     48866292                       (Unspecified)
board.cache_hierarchy.ruby_system.m_outstandReqHistSeqr::mean     1.379286                       (Unspecified)
board.cache_hierarchy.ruby_system.m_outstandReqHistSeqr::gmean     1.287013                       (Unspecified)
board.cache_hierarchy.ruby_system.m_outstandReqHistSeqr::stdev     0.555839                       (Unspecified)
board.cache_hierarchy.ruby_system.m_outstandReqHistSeqr |           0      0.00%      0.00% |    32128565     65.75%     65.75% |    14941173     30.58%     96.32% |     1796554      3.68%    100.00% |           0      0.00%    100.00% |           0      0.00%    100.00% |           0      0.00%    100.00% |           0      0.00%    100.00% |           0      0.00%    100.00% |           0      0.00%    100.00% (Unspecified)
board.cache_hierarchy.ruby_system.m_outstandReqHistSeqr::total     48866292                       (Unspecified)
board.cache_hierarchy.ruby_system.m_latencyHistSeqr::bucket_size          256                       (Unspecified)
board.cache_hierarchy.ruby_system.m_latencyHistSeqr::max_bucket         2559                       (Unspecified)
board.cache_hierarchy.ruby_system.m_latencyHistSeqr::samples     49241290                       (Unspecified)
board.cache_hierarchy.ruby_system.m_latencyHistSeqr::mean     5.367673                       (Unspecified)
board.cache_hierarchy.ruby_system.m_latencyHistSeqr::gmean     1.094744                       (Unspecified)
board.cache_hierarchy.ruby_system.m_latencyHistSeqr::stdev    41.500291                       (Unspecified)
board.cache_hierarchy.ruby_system.m_latencyHistSeqr |    48901518     99.31%     99.31% |      248304      0.50%     99.81% |       77724      0.16%     99.97% |        7162      0.01%     99.99% |        4107      0.01%     99.99% |        2143      0.00%    100.00% |         325      0.00%    100.00% |           7      0.00%    100.00% |           0      0.00%    100.00% |           0      0.00%    100.00% (Unspecified)
board.cache_hierarchy.ruby_system.m_latencyHistSeqr::total     49241290                       (Unspecified)
board.cache_hierarchy.ruby_system.m_hitLatencyHistSeqr::bucket_size            1                       (Unspecified)
board.cache_hierarchy.ruby_system.m_hitLatencyHistSeqr::max_bucket            9                       (Unspecified)
board.cache_hierarchy.ruby_system.m_hitLatencyHistSeqr::samples     48474167                       (Unspecified)
board.cache_hierarchy.ruby_system.m_hitLatencyHistSeqr::mean     1.007736                       (Unspecified)
board.cache_hierarchy.ruby_system.m_hitLatencyHistSeqr::gmean     1.005377                       (Unspecified)
board.cache_hierarchy.ruby_system.m_hitLatencyHistSeqr::stdev     0.087615                       (Unspecified)
board.cache_hierarchy.ruby_system.m_hitLatencyHistSeqr |           0      0.00%      0.00% |    48099159     99.23%     99.23% |      375008      0.77%    100.00% |           0      0.00%    100.00% |           0      0.00%    100.00% |           0      0.00%    100.00% |           0      0.00%    100.00% |           0      0.00%    100.00% |           0      0.00%    100.00% |           0      0.00%    100.00% (Unspecified)
board.cache_hierarchy.ruby_system.m_hitLatencyHistSeqr::total     48474167                       (Unspecified)
board.cache_hierarchy.ruby_system.m_missLatencyHistSeqr::bucket_size          256                       (Unspecified)
board.cache_hierarchy.ruby_system.m_missLatencyHistSeqr::max_bucket         2559                       (Unspecified)
board.cache_hierarchy.ruby_system.m_missLatencyHistSeqr::samples       767123                       (Unspecified)
board.cache_hierarchy.ruby_system.m_missLatencyHistSeqr::mean   280.870166                       (Unspecified)
board.cache_hierarchy.ruby_system.m_missLatencyHistSeqr::gmean   237.851220                       (Unspecified)
board.cache_hierarchy.ruby_system.m_missLatencyHistSeqr::stdev   182.890091                       (Unspecified)
board.cache_hierarchy.ruby_system.m_missLatencyHistSeqr |      427351     55.71%     55.71% |      248304     32.37%     88.08% |       77724     10.13%     98.21% |        7162      0.93%     99.14% |        4107      0.54%     99.68% |        2143      0.28%     99.96% |         325      0.04%    100.00% |           7      0.00%    100.00% |           0      0.00%    100.00% |           0      0.00%    100.00% (Unspecified)
board.cache_hierarchy.ruby_system.m_missLatencyHistSeqr::total       767123                       (Unspecified)
board.cache_hierarchy.ruby_system.delayVCHist.vnet_0::bucket_size          512                       # delay histogram for vnet_0 (Unspecified)
board.cache_hierarchy.ruby_system.delayVCHist.vnet_0::max_bucket         5119                       # delay histogram for vnet_0 (Unspecified)
board.cache_hierarchy.ruby_system.delayVCHist.vnet_0::samples      1905089                       # delay histogram for vnet_0 (Unspecified)
board.cache_hierarchy.ruby_system.delayVCHist.vnet_0::mean     2.065822                       # delay histogram for vnet_0 (Unspecified)
board.cache_hierarchy.ruby_system.delayVCHist.vnet_0::stdev     6.152563                       # delay histogram for vnet_0 (Unspecified)
board.cache_hierarchy.ruby_system.delayVCHist.vnet_0 |     1905078    100.00%    100.00% |           2      0.00%    100.00% |           2      0.00%    100.00% |           2      0.00%    100.00% |           2      0.00%    100.00% |           2      0.00%    100.00% |           1      0.00%    100.00% |           0      0.00%    100.00% |           0      0.00%    100.00% |           0      0.00%    100.00% # delay histogram for vnet_0 (Unspecified)
board.cache_hierarchy.ruby_system.delayVCHist.vnet_0::total      1905089                       # delay histogram for vnet_0 (Unspecified)
board.cache_hierarchy.ruby_system.delayVCHist.vnet_1::bucket_size            8                       # delay histogram for vnet_1 (Unspecified)
board.cache_hierarchy.ruby_system.delayVCHist.vnet_1::max_bucket           79                       # delay histogram for vnet_1 (Unspecified)
board.cache_hierarchy.ruby_system.delayVCHist.vnet_1::samples      3042195                       # delay histogram for vnet_1 (Unspecified)
board.cache_hierarchy.ruby_system.delayVCHist.vnet_1::mean     0.325548                       # delay histogram for vnet_1 (Unspecified)
board.cache_hierarchy.ruby_system.delayVCHist.vnet_1::stdev     1.512274                       # delay histogram for vnet_1 (Unspecified)
board.cache_hierarchy.ruby_system.delayVCHist.vnet_1 |     2994029     98.42%     98.42% |       44943      1.48%     99.89% |        2855      0.09%     99.99% |         304      0.01%    100.00% |          38      0.00%    100.00% |          18      0.00%    100.00% |           6      0.00%    100.00% |           1      0.00%    100.00% |           0      0.00%    100.00% |           1      0.00%    100.00% # delay histogram for vnet_1 (Unspecified)
board.cache_hierarchy.ruby_system.delayVCHist.vnet_1::total      3042195                       # delay histogram for vnet_1 (Unspecified)
board.cache_hierarchy.ruby_system.delayVCHist.vnet_2::bucket_size            1                       # delay histogram for vnet_2 (Unspecified)
board.cache_hierarchy.ruby_system.delayVCHist.vnet_2::max_bucket            9                       # delay histogram for vnet_2 (Unspecified)
board.cache_hierarchy.ruby_system.delayVCHist.vnet_2::samples       381045                       # delay histogram for vnet_2 (Unspecified)
board.cache_hierarchy.ruby_system.delayVCHist.vnet_2::mean     0.000010                       # delay histogram for vnet_2 (Unspecified)
board.cache_hierarchy.ruby_system.delayVCHist.vnet_2::stdev     0.004582                       # delay histogram for vnet_2 (Unspecified)
board.cache_hierarchy.ruby_system.delayVCHist.vnet_2 |      381043    100.00%    100.00% |           0      0.00%    100.00% |           2      0.00%    100.00% |           0      0.00%    100.00% |           0      0.00%    100.00% |           0      0.00%    100.00% |           0      0.00%    100.00% |           0      0.00%    100.00% |           0      0.00%    100.00% |           0      0.00%    100.00% # delay histogram for vnet_2 (Unspecified)
board.cache_hierarchy.ruby_system.delayVCHist.vnet_2::total       381045                       # delay histogram for vnet_2 (Unspecified)
board.cache_hierarchy.ruby_system.Directory_Controller.Fetch       758404      0.00%      0.00% (Unspecified)
board.cache_hierarchy.ruby_system.Directory_Controller.Data       501558      0.00%      0.00% (Unspecified)
board.cache_hierarchy.ruby_system.Directory_Controller.Memory_Data       758404      0.00%      0.00% (Unspecified)
board.cache_hierarchy.ruby_system.Directory_Controller.Memory_Ack       501558      0.00%      0.00% (Unspecified)
board.cache_hierarchy.ruby_system.Directory_Controller.CleanReplacement       252750      0.00%      0.00% (Unspecified)
board.cache_hierarchy.ruby_system.Directory_Controller.I.Fetch       758404      0.00%      0.00% (Unspecified)
board.cache_hierarchy.ruby_system.Directory_Controller.M.Data       501558      0.00%      0.00% (Unspecified)
board.cache_hierarchy.ruby_system.Directory_Controller.M.CleanReplacement       252750      0.00%      0.00% (Unspecified)
board.cache_hierarchy.ruby_system.Directory_Controller.IM.Memory_Data       758404      0.00%      0.00% (Unspecified)
board.cache_hierarchy.ruby_system.Directory_Controller.MI.Memory_Ack       501558      0.00%      0.00% (Unspecified)
board.cache_hierarchy.ruby_system.L1Cache_Controller.Load |    15620022     63.75%     63.75% |      604049      2.47%     66.22% |      607615      2.48%     68.70% |      604232      2.47%     71.16% |      596114      2.43%     73.60% |      591279      2.41%     76.01% |      590165      2.41%     78.42% |      596072      2.43%     80.85% |      592959      2.42%     83.27% |      590867      2.41%     85.68% |      588073      2.40%     88.08% |      583036      2.38%     90.46% |      585016      2.39%     92.85% |      587968      2.40%     95.25% |      582764      2.38%     97.63% |      580563      2.37%    100.00% (Unspecified)
board.cache_hierarchy.ruby_system.L1Cache_Controller.Load::total     24500794                       (Unspecified)
board.cache_hierarchy.ruby_system.L1Cache_Controller.Ifetch |    12411697     72.84%     72.84% |      332516      1.95%     74.79% |      339673      1.99%     76.78% |      332898      1.95%     78.74% |      316683      1.86%     80.60% |      306998      1.80%     82.40% |      304807      1.79%     84.19% |      316599      1.86%     86.04% |      310375      1.82%     87.86% |      306202      1.80%     89.66% |      300609      1.76%     91.43% |      290532      1.70%     93.13% |      294504      1.73%     94.86% |      300407      1.76%     96.62% |      289982      1.70%     98.32% |      285590      1.68%    100.00% (Unspecified)
board.cache_hierarchy.ruby_system.L1Cache_Controller.Ifetch::total     17040072                       (Unspecified)
board.cache_hierarchy.ruby_system.L1Cache_Controller.Store |     5764461     74.86%     74.86% |      133858      1.74%     76.60% |      135286      1.76%     78.36% |      133925      1.74%     80.09% |      130679      1.70%     81.79% |      128741      1.67%     83.46% |      128306      1.67%     85.13% |      130664      1.70%     86.83% |      129420      1.68%     88.51% |      128585      1.67%     90.18% |      127462      1.66%     91.83% |      125454      1.63%     93.46% |      126241      1.64%     95.10% |      127423      1.65%     96.76% |      125338      1.63%     98.38% |      124455      1.62%    100.00% (Unspecified)
board.cache_hierarchy.ruby_system.L1Cache_Controller.Store::total      7700298                       (Unspecified)
board.cache_hierarchy.ruby_system.L1Cache_Controller.Inv |       25423      6.68%      6.68% |       23822      6.26%     12.93% |       23819      6.26%     19.19% |       23804      6.25%     25.44% |       23672      6.22%     31.66% |       23623      6.20%     37.86% |       23626      6.20%     44.07% |       23821      6.26%     50.32% |       23750      6.24%     56.56% |       23676      6.22%     62.78% |       23630      6.21%     68.98% |       23605      6.20%     75.18% |       23639      6.21%     81.39% |       23704      6.23%     87.62% |       23598      6.20%     93.81% |       23554      6.19%    100.00% (Unspecified)
board.cache_hierarchy.ruby_system.L1Cache_Controller.Inv::total       380766                       (Unspecified)
board.cache_hierarchy.ruby_system.L1Cache_Controller.L1_Replacement |      400906     53.74%     53.74% |       23004      3.08%     56.83% |       23001      3.08%     59.91% |       23004      3.08%     63.00% |       23001      3.08%     66.08% |       23004      3.08%     69.16% |       23001      3.08%     72.25% |       23004      3.08%     75.33% |       23001      3.08%     78.41% |       23004      3.08%     81.50% |       23001      3.08%     84.58% |       23006      3.08%     87.67% |       23001      3.08%     90.75% |       23004      3.08%     93.83% |       23001      3.08%     96.92% |       23002      3.08%    100.00% (Unspecified)
board.cache_hierarchy.ruby_system.L1Cache_Controller.L1_Replacement::total       745945                       (Unspecified)
board.cache_hierarchy.ruby_system.L1Cache_Controller.Fwd_GETX |          75     52.82%     52.82% |           5      3.52%     56.34% |           5      3.52%     59.86% |           5      3.52%     63.38% |           5      3.52%     66.90% |           4      2.82%     69.72% |           5      3.52%     73.24% |           4      2.82%     76.06% |           5      3.52%     79.58% |           5      3.52%     83.10% |           5      3.52%     86.62% |           4      2.82%     89.44% |           5      3.52%     92.96% |           4      2.82%     95.77% |           5      3.52%     99.30% |           1      0.70%    100.00% (Unspecified)
board.cache_hierarchy.ruby_system.L1Cache_Controller.Fwd_GETX::total          142                       (Unspecified)
board.cache_hierarchy.ruby_system.L1Cache_Controller.Fwd_GETS |         120     87.59%     87.59% |          10      7.30%     94.89% |           4      2.92%     97.81% |           0      0.00%     97.81% |           0      0.00%     97.81% |           0      0.00%     97.81% |           0      0.00%     97.81% |           0      0.00%     97.81% |           0      0.00%     97.81% |           0      0.00%     97.81% |           0      0.00%     97.81% |           2      1.46%     99.27% |           0      0.00%     99.27% |           0      0.00%     99.27% |           0      0.00%     99.27% |           1      0.73%    100.00% (Unspecified)
board.cache_hierarchy.ruby_system.L1Cache_Controller.Fwd_GETS::total          137                       (Unspecified)
board.cache_hierarchy.ruby_system.L1Cache_Controller.Data_Exclusive |       17527      6.87%      6.87% |       15847      6.21%     13.08% |       15813      6.20%     19.27% |       15814      6.20%     25.47% |       15811      6.19%     31.66% |       15838      6.21%     37.87% |       15871      6.22%     44.09% |       15872      6.22%     50.31% |       15837      6.21%     56.51% |       15837      6.21%     62.72% |       15870      6.22%     68.93% |       15873      6.22%     75.15% |       15836      6.20%     81.36% |       15840      6.21%     87.56% |       15869      6.22%     93.78% |       15871      6.22%    100.00% (Unspecified)
board.cache_hierarchy.ruby_system.L1Cache_Controller.Data_Exclusive::total       255226                       (Unspecified)
board.cache_hierarchy.ruby_system.L1Cache_Controller.DataS_fromL1 |           1      0.73%      0.73% |          21     15.33%     16.06% |          18     13.14%     29.20% |          11      8.03%     37.23% |           7      5.11%     42.34% |           7      5.11%     47.45% |           7      5.11%     52.55% |           7      5.11%     57.66% |           8      5.84%     63.50% |           7      5.11%     68.61% |           8      5.84%     74.45% |           7      5.11%     79.56% |           7      5.11%     84.67% |           7      5.11%     89.78% |           7      5.11%     94.89% |           7      5.11%    100.00% (Unspecified)
board.cache_hierarchy.ruby_system.L1Cache_Controller.DataS_fromL1::total          137                       (Unspecified)
board.cache_hierarchy.ruby_system.L1Cache_Controller.Data_all_Acks |      385589     75.35%     75.35% |        8385      1.64%     76.99% |        8393      1.64%     78.63% |        8406      1.64%     80.28% |        8410      1.64%     81.92% |        8411      1.64%     83.56% |        8410      1.64%     85.21% |        8411      1.64%     86.85% |        8408      1.64%     88.49% |        8413      1.64%     90.14% |        8410      1.64%     91.78% |        8417      1.64%     93.43% |        8410      1.64%     95.07% |        8410      1.64%     96.71% |        8411      1.64%     98.36% |        8413      1.64%    100.00% (Unspecified)
board.cache_hierarchy.ruby_system.L1Cache_Controller.Data_all_Acks::total       511707                       (Unspecified)
board.cache_hierarchy.ruby_system.L1Cache_Controller.Ack |          15     20.00%     20.00% |           2      2.67%     22.67% |           2      2.67%     25.33% |           2      2.67%     28.00% |           2      2.67%     30.67% |           2      2.67%     33.33% |           2      2.67%     36.00% |           2      2.67%     38.67% |           2      2.67%     41.33% |           2      2.67%     44.00% |           2      2.67%     46.67% |          17     22.67%     69.33% |           2      2.67%     72.00% |           2      2.67%     74.67% |           2      2.67%     77.33% |          17     22.67%    100.00% (Unspecified)
board.cache_hierarchy.ruby_system.L1Cache_Controller.Ack::total           75                       (Unspecified)
board.cache_hierarchy.ruby_system.L1Cache_Controller.Ack_all |          15     31.91%     31.91% |           2      4.26%     36.17% |           2      4.26%     40.43% |           2      4.26%     44.68% |           2      4.26%     48.94% |           2      4.26%     53.19% |           2      4.26%     57.45% |           2      4.26%     61.70% |           2      4.26%     65.96% |           2      4.26%     70.21% |           2      4.26%     74.47% |           3      6.38%     80.85% |           2      4.26%     85.11% |           2      4.26%     89.36% |           2      4.26%     93.62% |           3      6.38%    100.00% (Unspecified)
board.cache_hierarchy.ruby_system.L1Cache_Controller.Ack_all::total           47                       (Unspecified)
board.cache_hierarchy.ruby_system.L1Cache_Controller.WB_Ack |      376884     98.80%     98.80% |         302      0.08%     98.88% |         326      0.09%     98.97% |         329      0.09%     99.05% |         269      0.07%     99.12% |         293      0.08%     99.20% |         325      0.09%     99.28% |         279      0.07%     99.36% |         289      0.08%     99.43% |         275      0.07%     99.51% |         325      0.09%     99.59% |         273      0.07%     99.66% |         286      0.07%     99.74% |         298      0.08%     99.82% |         361      0.09%     99.91% |         343      0.09%    100.00% (Unspecified)
board.cache_hierarchy.ruby_system.L1Cache_Controller.WB_Ack::total       381457                       (Unspecified)
board.cache_hierarchy.ruby_system.L1Cache_Controller.Load_Linked |         128    100.00%    100.00% |           0      0.00%    100.00% |           0      0.00%    100.00% |           0      0.00%    100.00% |           0      0.00%    100.00% |           0      0.00%    100.00% |           0      0.00%    100.00% |           0      0.00%    100.00% |           0      0.00%    100.00% |           0      0.00%    100.00% |           0      0.00%    100.00% |           0      0.00%    100.00% |           0      0.00%    100.00% |           0      0.00%    100.00% |           0      0.00%    100.00% |           0      0.00%    100.00% (Unspecified)
board.cache_hierarchy.ruby_system.L1Cache_Controller.Load_Linked::total          128                       (Unspecified)
board.cache_hierarchy.ruby_system.L1Cache_Controller.LLSC_Data_all_Acks |           6    100.00%    100.00% |           0      0.00%    100.00% |           0      0.00%    100.00% |           0      0.00%    100.00% |           0      0.00%    100.00% |           0      0.00%    100.00% |           0      0.00%    100.00% |           0      0.00%    100.00% |           0      0.00%    100.00% |           0      0.00%    100.00% |           0      0.00%    100.00% |           0      0.00%    100.00% |           0      0.00%    100.00% |           0      0.00%    100.00% |           0      0.00%    100.00% |           0      0.00%    100.00% (Unspecified)
board.cache_hierarchy.ruby_system.L1Cache_Controller.LLSC_Data_all_Acks::total            6                       (Unspecified)
board.cache_hierarchy.ruby_system.L1Cache_Controller.LLSC_Timeout |         128    100.00%    100.00% |           0      0.00%    100.00% |           0      0.00%    100.00% |           0      0.00%    100.00% |           0      0.00%    100.00% |           0      0.00%    100.00% |           0      0.00%    100.00% |           0      0.00%    100.00% |           0      0.00%    100.00% |           0      0.00%    100.00% |           0      0.00%    100.00% |           0      0.00%    100.00% |           0      0.00%    100.00% |           0      0.00%    100.00% |           0      0.00%    100.00% |           0      0.00%    100.00% (Unspecified)
board.cache_hierarchy.ruby_system.L1Cache_Controller.LLSC_Timeout::total          128                       (Unspecified)
board.cache_hierarchy.ruby_system.L1Cache_Controller.NP.Load |       17262      6.84%      6.84% |       15671      6.21%     13.05% |       15669      6.21%     19.26% |       15671      6.21%     25.47% |       15669      6.21%     31.68% |       15671      6.21%     37.89% |       15669      6.21%     44.10% |       15671      6.21%     50.32% |       15669      6.21%     56.53% |       15671      6.21%     62.74% |       15669      6.21%     68.95% |       15673      6.21%     75.16% |       15669      6.21%     81.37% |       15671      6.21%     87.58% |       15669      6.21%     93.79% |       15669      6.21%    100.00% (Unspecified)
board.cache_hierarchy.ruby_system.L1Cache_Controller.NP.Load::total       252313                       (Unspecified)
board.cache_hierarchy.ruby_system.L1Cache_Controller.NP.Ifetch |        1265     36.17%     36.17% |         148      4.23%     40.41% |         148      4.23%     44.64% |         149      4.26%     48.90% |         148      4.23%     53.13% |         148      4.23%     57.36% |         148      4.23%     61.60% |         148      4.23%     65.83% |         148      4.23%     70.06% |         148      4.23%     74.29% |         148      4.23%     78.52% |         154      4.40%     82.93% |         148      4.23%     87.16% |         148      4.23%     91.39% |         148      4.23%     95.62% |         153      4.38%    100.00% (Unspecified)
board.cache_hierarchy.ruby_system.L1Cache_Controller.NP.Ifetch::total         3497                       (Unspecified)
board.cache_hierarchy.ruby_system.L1Cache_Controller.NP.Store |      383396     76.52%     76.52% |        7845      1.57%     78.08% |        7844      1.57%     79.65% |        7845      1.57%     81.21% |        7844      1.57%     82.78% |        7845      1.57%     84.34% |        7844      1.57%     85.91% |        7845      1.57%     87.48% |        7844      1.57%     89.04% |        7845      1.57%     90.61% |        7844      1.57%     92.17% |        7845      1.57%     93.74% |        7844      1.57%     95.30% |        7845      1.57%     96.87% |        7844      1.57%     98.43% |        7845      1.57%    100.00% (Unspecified)
board.cache_hierarchy.ruby_system.L1Cache_Controller.NP.Store::total       501064                       (Unspecified)
board.cache_hierarchy.ruby_system.L1Cache_Controller.NP.Inv |         197     96.57%     96.57% |           0      0.00%     96.57% |           1      0.49%     97.06% |           2      0.98%     98.04% |           2      0.98%     99.02% |           1      0.49%     99.51% |           0      0.00%     99.51% |           0      0.00%     99.51% |           0      0.00%     99.51% |           0      0.00%     99.51% |           0      0.00%     99.51% |           0      0.00%     99.51% |           0      0.00%     99.51% |           0      0.00%     99.51% |           0      0.00%     99.51% |           1      0.49%    100.00% (Unspecified)
board.cache_hierarchy.ruby_system.L1Cache_Controller.NP.Inv::total          204                       (Unspecified)
board.cache_hierarchy.ruby_system.L1Cache_Controller.NP.Load_Linked |           6    100.00%    100.00% |           0      0.00%    100.00% |           0      0.00%    100.00% |           0      0.00%    100.00% |           0      0.00%    100.00% |           0      0.00%    100.00% |           0      0.00%    100.00% |           0      0.00%    100.00% |           0      0.00%    100.00% |           0      0.00%    100.00% |           0      0.00%    100.00% |           0      0.00%    100.00% |           0      0.00%    100.00% |           0      0.00%    100.00% |           0      0.00%    100.00% |           0      0.00%    100.00% (Unspecified)
board.cache_hierarchy.ruby_system.L1Cache_Controller.NP.Load_Linked::total            6                       (Unspecified)
board.cache_hierarchy.ruby_system.L1Cache_Controller.I.Load |         274      7.76%      7.76% |         208      5.89%     13.64% |         182      5.15%     18.79% |         185      5.24%     24.03% |         184      5.21%     29.24% |         209      5.92%     35.15% |         244      6.91%     42.06% |         243      6.88%     48.94% |         210      5.94%     54.88% |         208      5.89%     60.77% |         243      6.88%     67.65% |         241      6.82%     74.47% |         209      5.92%     80.38% |         211      5.97%     86.36% |         242      6.85%     93.21% |         240      6.79%    100.00% (Unspecified)
board.cache_hierarchy.ruby_system.L1Cache_Controller.I.Load::total         3533                       (Unspecified)
board.cache_hierarchy.ruby_system.L1Cache_Controller.I.Ifetch |         915     13.79%     13.79% |         379      5.71%     19.50% |         379      5.71%     25.21% |         380      5.73%     30.94% |         382      5.76%     36.70% |         382      5.76%     42.46% |         382      5.76%     48.21% |         381      5.74%     53.96% |         382      5.76%     59.71% |         382      5.76%     65.47% |         382      5.76%     71.23% |         382      5.76%     76.99% |         382      5.76%     82.74% |         382      5.76%     88.50% |         382      5.76%     94.26% |         381      5.74%    100.00% (Unspecified)
board.cache_hierarchy.ruby_system.L1Cache_Controller.I.Ifetch::total         6635                       (Unspecified)
board.cache_hierarchy.ruby_system.L1Cache_Controller.I.Store |           6     20.69%     20.69% |           2      6.90%     27.59% |           2      6.90%     34.48% |           1      3.45%     37.93% |           1      3.45%     41.38% |           1      3.45%     44.83% |           1      3.45%     48.28% |           2      6.90%     55.17% |           0      0.00%     55.17% |           3     10.34%     65.52% |           2      6.90%     72.41% |           2      6.90%     79.31% |           1      3.45%     82.76% |           0      0.00%     82.76% |           2      6.90%     89.66% |           3     10.34%    100.00% (Unspecified)
board.cache_hierarchy.ruby_system.L1Cache_Controller.I.Store::total           29                       (Unspecified)
board.cache_hierarchy.ruby_system.L1Cache_Controller.I.L1_Replacement |       23740      6.52%      6.52% |       22702      6.23%     12.75% |       22674      6.23%     18.98% |       22673      6.23%     25.20% |       22730      6.24%     31.44% |       22710      6.24%     37.68% |       22676      6.23%     43.91% |       22725      6.24%     50.15% |       22712      6.24%     56.38% |       22729      6.24%     62.62% |       22676      6.23%     68.85% |       22733      6.24%     75.09% |       22715      6.24%     81.33% |       22706      6.23%     87.56% |       22640      6.22%     93.78% |       22658      6.22%    100.00% (Unspecified)
board.cache_hierarchy.ruby_system.L1Cache_Controller.I.L1_Replacement::total       364199                       (Unspecified)
board.cache_hierarchy.ruby_system.L1Cache_Controller.S.Load |        2735      3.03%      3.03% |        8251      9.15%     12.19% |        8354      9.27%     21.45% |        8306      9.21%     30.66% |        6684      7.41%     38.08% |        5715      6.34%     44.42% |        5496      6.10%     50.51% |        6675      7.40%     57.92% |        6053      6.71%     64.63% |        5635      6.25%     70.88% |        5076      5.63%     76.51% |        4068      4.51%     81.02% |        4466      4.95%     85.98% |        5056      5.61%     91.58% |        4014      4.45%     96.04% |        3573      3.96%    100.00% (Unspecified)
board.cache_hierarchy.ruby_system.L1Cache_Controller.S.Load::total        90157                       (Unspecified)
board.cache_hierarchy.ruby_system.L1Cache_Controller.S.Ifetch |    12409516     72.87%     72.87% |      331989      1.95%     74.82% |      339146      1.99%     76.81% |      332369      1.95%     78.76% |      316153      1.86%     80.62% |      306468      1.80%     82.42% |      304277      1.79%     84.20% |      316070      1.86%     86.06% |      309845      1.82%     87.88% |      305672      1.79%     89.67% |      300079      1.76%     91.44% |      289996      1.70%     93.14% |      293974      1.73%     94.87% |      299877      1.76%     96.63% |      289452      1.70%     98.33% |      285056      1.67%    100.00% (Unspecified)
board.cache_hierarchy.ruby_system.L1Cache_Controller.S.Ifetch::total     17029939                       (Unspecified)
board.cache_hierarchy.ruby_system.L1Cache_Controller.S.Store |          15     31.91%     31.91% |           2      4.26%     36.17% |           2      4.26%     40.43% |           2      4.26%     44.68% |           2      4.26%     48.94% |           2      4.26%     53.19% |           2      4.26%     57.45% |           2      4.26%     61.70% |           2      4.26%     65.96% |           2      4.26%     70.21% |           2      4.26%     74.47% |           3      6.38%     80.85% |           2      4.26%     85.11% |           2      4.26%     89.36% |           2      4.26%     93.62% |           3      6.38%    100.00% (Unspecified)
board.cache_hierarchy.ruby_system.L1Cache_Controller.S.Store::total           47                       (Unspecified)
board.cache_hierarchy.ruby_system.L1Cache_Controller.S.Inv |        1633     17.12%     17.12% |         526      5.51%     22.63% |         525      5.50%     28.14% |         525      5.50%     33.64% |         526      5.51%     39.16% |         527      5.52%     44.68% |         528      5.54%     50.21% |         528      5.54%     55.75% |         528      5.54%     61.29% |         528      5.54%     66.82% |         528      5.54%     72.36% |         527      5.52%     77.88% |         528      5.54%     83.42% |         528      5.54%     88.95% |         528      5.54%     94.49% |         526      5.51%    100.00% (Unspecified)
board.cache_hierarchy.ruby_system.L1Cache_Controller.S.Inv::total         9539                       (Unspecified)
board.cache_hierarchy.ruby_system.L1Cache_Controller.S.L1_Replacement |         282     97.58%     97.58% |           0      0.00%     97.58% |           1      0.35%     97.92% |           2      0.69%     98.62% |           2      0.69%     99.31% |           1      0.35%     99.65% |           0      0.00%     99.65% |           0      0.00%     99.65% |           0      0.00%     99.65% |           0      0.00%     99.65% |           0      0.00%     99.65% |           0      0.00%     99.65% |           0      0.00%     99.65% |           0      0.00%     99.65% |           0      0.00%     99.65% |           1      0.35%    100.00% (Unspecified)
board.cache_hierarchy.ruby_system.L1Cache_Controller.S.L1_Replacement::total          289                       (Unspecified)
board.cache_hierarchy.ruby_system.L1Cache_Controller.E.Load |     3073818     40.96%     40.96% |      295622      3.94%     44.89% |      295788      3.94%     48.84% |      295679      3.94%     52.78% |      295694      3.94%     56.71% |      295372      3.94%     60.65% |      295278      3.93%     64.58% |      295314      3.93%     68.52% |      295051      3.93%     72.45% |      295842      3.94%     76.39% |      295127      3.93%     80.32% |      295325      3.93%     84.26% |      295149      3.93%     88.19% |      295586      3.94%     92.13% |      295286      3.93%     96.07% |      295320      3.93%    100.00% (Unspecified)
board.cache_hierarchy.ruby_system.L1Cache_Controller.E.Load::total      7505251                       (Unspecified)
board.cache_hierarchy.ruby_system.L1Cache_Controller.E.Store |         245     13.12%     13.12% |         103      5.51%     18.63% |          91      4.87%     23.50% |          92      4.93%     28.43% |          92      4.93%     33.35% |         104      5.57%     38.92% |         122      6.53%     45.45% |         121      6.48%     51.93% |         106      5.67%     57.60% |         102      5.46%     63.06% |         121      6.48%     69.54% |         120      6.42%     75.96% |         105      5.62%     81.58% |         105      5.62%     87.21% |         120      6.42%     93.63% |         119      6.37%    100.00% (Unspecified)
board.cache_hierarchy.ruby_system.L1Cache_Controller.E.Store::total         1868                       (Unspecified)
board.cache_hierarchy.ruby_system.L1Cache_Controller.E.Inv |       15425      6.30%      6.30% |       15364      6.28%     12.58% |       15364      6.28%     18.86% |       15358      6.28%     25.13% |       15294      6.25%     31.38% |       15251      6.23%     37.61% |       15245      6.23%     43.84% |       15376      6.28%     50.13% |       15330      6.26%     56.39% |       15285      6.25%     62.64% |       15252      6.23%     68.87% |       15253      6.23%     75.10% |       15259      6.23%     81.34% |       15287      6.25%     87.58% |       15207      6.21%     93.80% |       15185      6.20%    100.00% (Unspecified)
board.cache_hierarchy.ruby_system.L1Cache_Controller.E.Inv::total       244735                       (Unspecified)
board.cache_hierarchy.ruby_system.L1Cache_Controller.E.L1_Replacement |        1679     26.92%     26.92% |         302      4.84%     31.76% |         324      5.19%     36.96% |         326      5.23%     42.18% |         269      4.31%     46.50% |         292      4.68%     51.18% |         323      5.18%     56.36% |         277      4.44%     60.80% |         289      4.63%     65.43% |         275      4.41%     69.84% |         322      5.16%     75.00% |         271      4.35%     79.35% |         286      4.59%     83.93% |         298      4.78%     88.71% |         361      5.79%     94.50% |         343      5.50%    100.00% (Unspecified)
board.cache_hierarchy.ruby_system.L1Cache_Controller.E.L1_Replacement::total         6237                       (Unspecified)
board.cache_hierarchy.ruby_system.L1Cache_Controller.E.Fwd_GETS |           7     33.33%     33.33% |          10     47.62%     80.95% |           4     19.05%    100.00% |           0      0.00%    100.00% |           0      0.00%    100.00% |           0      0.00%    100.00% |           0      0.00%    100.00% |           0      0.00%    100.00% |           0      0.00%    100.00% |           0      0.00%    100.00% |           0      0.00%    100.00% |           0      0.00%    100.00% |           0      0.00%    100.00% |           0      0.00%    100.00% |           0      0.00%    100.00% |           0      0.00%    100.00% (Unspecified)
board.cache_hierarchy.ruby_system.L1Cache_Controller.E.Fwd_GETS::total           21                       (Unspecified)
board.cache_hierarchy.ruby_system.L1Cache_Controller.E.Load_Linked |           9    100.00%    100.00% |           0      0.00%    100.00% |           0      0.00%    100.00% |           0      0.00%    100.00% |           0      0.00%    100.00% |           0      0.00%    100.00% |           0      0.00%    100.00% |           0      0.00%    100.00% |           0      0.00%    100.00% |           0      0.00%    100.00% |           0      0.00%    100.00% |           0      0.00%    100.00% |           0      0.00%    100.00% |           0      0.00%    100.00% |           0      0.00%    100.00% |           0      0.00%    100.00% (Unspecified)
board.cache_hierarchy.ruby_system.L1Cache_Controller.E.Load_Linked::total            9                       (Unspecified)
board.cache_hierarchy.ruby_system.L1Cache_Controller.M.Load |    12525911     75.23%     75.23% |      284297      1.71%     76.94% |      287622      1.73%     78.67% |      284391      1.71%     80.38% |      277883      1.67%     82.05% |      274312      1.65%     83.69% |      273478      1.64%     85.34% |      278169      1.67%     87.01% |      275976      1.66%     88.66% |      273511      1.64%     90.31% |      271958      1.63%     91.94% |      267729      1.61%     93.55% |      269523      1.62%     95.17% |      271444      1.63%     96.80% |      267553      1.61%     98.40% |      265761      1.60%    100.00% (Unspecified)
board.cache_hierarchy.ruby_system.L1Cache_Controller.M.Load::total     16649518                       (Unspecified)
board.cache_hierarchy.ruby_system.L1Cache_Controller.M.Store |     5380661     74.76%     74.76% |      125906      1.75%     76.51% |      127347      1.77%     78.28% |      125985      1.75%     80.03% |      122740      1.71%     81.74% |      120789      1.68%     83.41% |      120337      1.67%     85.09% |      122694      1.70%     86.79% |      121468      1.69%     88.48% |      120633      1.68%     90.15% |      119493      1.66%     91.81% |      117484      1.63%     93.45% |      118289      1.64%     95.09% |      119471      1.66%     96.75% |      117370      1.63%     98.38% |      116485      1.62%    100.00% (Unspecified)
board.cache_hierarchy.ruby_system.L1Cache_Controller.M.Store::total      7197152                       (Unspecified)
board.cache_hierarchy.ruby_system.L1Cache_Controller.M.Inv |        8168      6.47%      6.47% |        7932      6.28%     12.75% |        7929      6.28%     19.03% |        7919      6.27%     25.30% |        7850      6.22%     31.51% |        7844      6.21%     37.72% |        7853      6.22%     43.94% |        7917      6.27%     50.21% |        7892      6.25%     56.46% |        7863      6.23%     62.69% |        7850      6.22%     68.90% |        7825      6.20%     75.10% |        7852      6.22%     81.32% |        7889      6.25%     87.56% |        7863      6.23%     93.79% |        7842      6.21%    100.00% (Unspecified)
board.cache_hierarchy.ruby_system.L1Cache_Controller.M.Inv::total       126288                       (Unspecified)
board.cache_hierarchy.ruby_system.L1Cache_Controller.M.L1_Replacement |      375205    100.00%    100.00% |           0      0.00%    100.00% |           2      0.00%    100.00% |           3      0.00%    100.00% |           0      0.00%    100.00% |           1      0.00%    100.00% |           2      0.00%    100.00% |           2      0.00%    100.00% |           0      0.00%    100.00% |           0      0.00%    100.00% |           3      0.00%    100.00% |           2      0.00%    100.00% |           0      0.00%    100.00% |           0      0.00%    100.00% |           0      0.00%    100.00% |           0      0.00%    100.00% (Unspecified)
board.cache_hierarchy.ruby_system.L1Cache_Controller.M.L1_Replacement::total       375220                       (Unspecified)
board.cache_hierarchy.ruby_system.L1Cache_Controller.M.Fwd_GETX |          75     52.82%     52.82% |           5      3.52%     56.34% |           5      3.52%     59.86% |           5      3.52%     63.38% |           5      3.52%     66.90% |           4      2.82%     69.72% |           5      3.52%     73.24% |           4      2.82%     76.06% |           5      3.52%     79.58% |           5      3.52%     83.10% |           5      3.52%     86.62% |           4      2.82%     89.44% |           5      3.52%     92.96% |           4      2.82%     95.77% |           5      3.52%     99.30% |           1      0.70%    100.00% (Unspecified)
board.cache_hierarchy.ruby_system.L1Cache_Controller.M.Fwd_GETX::total          142                       (Unspecified)
board.cache_hierarchy.ruby_system.L1Cache_Controller.M.Fwd_GETS |         113     97.41%     97.41% |           0      0.00%     97.41% |           0      0.00%     97.41% |           0      0.00%     97.41% |           0      0.00%     97.41% |           0      0.00%     97.41% |           0      0.00%     97.41% |           0      0.00%     97.41% |           0      0.00%     97.41% |           0      0.00%     97.41% |           0      0.00%     97.41% |           2      1.72%     99.14% |           0      0.00%     99.14% |           0      0.00%     99.14% |           0      0.00%     99.14% |           1      0.86%    100.00% (Unspecified)
board.cache_hierarchy.ruby_system.L1Cache_Controller.M.Fwd_GETS::total          116                       (Unspecified)
board.cache_hierarchy.ruby_system.L1Cache_Controller.M.Load_Linked |         113    100.00%    100.00% |           0      0.00%    100.00% |           0      0.00%    100.00% |           0      0.00%    100.00% |           0      0.00%    100.00% |           0      0.00%    100.00% |           0      0.00%    100.00% |           0      0.00%    100.00% |           0      0.00%    100.00% |           0      0.00%    100.00% |           0      0.00%    100.00% |           0      0.00%    100.00% |           0      0.00%    100.00% |           0      0.00%    100.00% |           0      0.00%    100.00% |           0      0.00%    100.00% (Unspecified)
board.cache_hierarchy.ruby_system.L1Cache_Controller.M.Load_Linked::total          113                       (Unspecified)
board.cache_hierarchy.ruby_system.L1Cache_Controller.IS.Data_Exclusive |       17527      6.87%      6.87% |       15847      6.21%     13.08% |       15813      6.20%     19.27% |       15814      6.20%     25.47% |       15811      6.19%     31.66% |       15838      6.21%     37.87% |       15871      6.22%     44.09% |       15872      6.22%     50.31% |       15837      6.21%     56.51% |       15837      6.21%     62.72% |       15870      6.22%     68.93% |       15873      6.22%     75.15% |       15836      6.20%     81.36% |       15840      6.21%     87.56% |       15869      6.22%     93.78% |       15871      6.22%    100.00% (Unspecified)
board.cache_hierarchy.ruby_system.L1Cache_Controller.IS.Data_Exclusive::total       255226                       (Unspecified)
board.cache_hierarchy.ruby_system.L1Cache_Controller.IS.DataS_fromL1 |           1      0.73%      0.73% |          21     15.33%     16.06% |          18     13.14%     29.20% |          11      8.03%     37.23% |           7      5.11%     42.34% |           7      5.11%     47.45% |           7      5.11%     52.55% |           7      5.11%     57.66% |           8      5.84%     63.50% |           7      5.11%     68.61% |           8      5.84%     74.45% |           7      5.11%     79.56% |           7      5.11%     84.67% |           7      5.11%     89.78% |           7      5.11%     94.89% |           7      5.11%    100.00% (Unspecified)
board.cache_hierarchy.ruby_system.L1Cache_Controller.IS.DataS_fromL1::total          137                       (Unspecified)
board.cache_hierarchy.ruby_system.L1Cache_Controller.IS.Data_all_Acks |        2187     20.60%     20.60% |         538      5.07%     25.67% |         547      5.15%     30.83% |         560      5.28%     36.10% |         565      5.32%     41.43% |         565      5.32%     46.75% |         565      5.32%     52.07% |         564      5.31%     57.39% |         564      5.31%     62.70% |         565      5.32%     68.02% |         564      5.31%     73.34% |         570      5.37%     78.71% |         565      5.32%     84.03% |         565      5.32%     89.35% |         565      5.32%     94.68% |         565      5.32%    100.00% (Unspecified)
board.cache_hierarchy.ruby_system.L1Cache_Controller.IS.Data_all_Acks::total        10614                       (Unspecified)
board.cache_hierarchy.ruby_system.L1Cache_Controller.IM.Data_all_Acks |      383402     76.51%     76.51% |        7847      1.57%     78.08% |        7846      1.57%     79.64% |        7846      1.57%     81.21% |        7845      1.57%     82.78% |        7846      1.57%     84.34% |        7845      1.57%     85.91% |        7847      1.57%     87.47% |        7844      1.57%     89.04% |        7848      1.57%     90.61% |        7846      1.57%     92.17% |        7847      1.57%     93.74% |        7845      1.57%     95.30% |        7845      1.57%     96.87% |        7846      1.57%     98.43% |        7848      1.57%    100.00% (Unspecified)
board.cache_hierarchy.ruby_system.L1Cache_Controller.IM.Data_all_Acks::total       501093                       (Unspecified)
board.cache_hierarchy.ruby_system.L1Cache_Controller.IM.LLSC_Data_all_Acks |           6    100.00%    100.00% |           0      0.00%    100.00% |           0      0.00%    100.00% |           0      0.00%    100.00% |           0      0.00%    100.00% |           0      0.00%    100.00% |           0      0.00%    100.00% |           0      0.00%    100.00% |           0      0.00%    100.00% |           0      0.00%    100.00% |           0      0.00%    100.00% |           0      0.00%    100.00% |           0      0.00%    100.00% |           0      0.00%    100.00% |           0      0.00%    100.00% |           0      0.00%    100.00% (Unspecified)
board.cache_hierarchy.ruby_system.L1Cache_Controller.IM.LLSC_Data_all_Acks::total            6                       (Unspecified)
board.cache_hierarchy.ruby_system.L1Cache_Controller.SM.Ack |          15     20.00%     20.00% |           2      2.67%     22.67% |           2      2.67%     25.33% |           2      2.67%     28.00% |           2      2.67%     30.67% |           2      2.67%     33.33% |           2      2.67%     36.00% |           2      2.67%     38.67% |           2      2.67%     41.33% |           2      2.67%     44.00% |           2      2.67%     46.67% |          17     22.67%     69.33% |           2      2.67%     72.00% |           2      2.67%     74.67% |           2      2.67%     77.33% |          17     22.67%    100.00% (Unspecified)
board.cache_hierarchy.ruby_system.L1Cache_Controller.SM.Ack::total           75                       (Unspecified)
board.cache_hierarchy.ruby_system.L1Cache_Controller.SM.Ack_all |          15     31.91%     31.91% |           2      4.26%     36.17% |           2      4.26%     40.43% |           2      4.26%     44.68% |           2      4.26%     48.94% |           2      4.26%     53.19% |           2      4.26%     57.45% |           2      4.26%     61.70% |           2      4.26%     65.96% |           2      4.26%     70.21% |           2      4.26%     74.47% |           3      6.38%     80.85% |           2      4.26%     85.11% |           2      4.26%     89.36% |           2      4.26%     93.62% |           3      6.38%    100.00% (Unspecified)
board.cache_hierarchy.ruby_system.L1Cache_Controller.SM.Ack_all::total           47                       (Unspecified)
board.cache_hierarchy.ruby_system.L1Cache_Controller.M_I.Ifetch |           1    100.00%    100.00% |           0      0.00%    100.00% |           0      0.00%    100.00% |           0      0.00%    100.00% |           0      0.00%    100.00% |           0      0.00%    100.00% |           0      0.00%    100.00% |           0      0.00%    100.00% |           0      0.00%    100.00% |           0      0.00%    100.00% |           0      0.00%    100.00% |           0      0.00%    100.00% |           0      0.00%    100.00% |           0      0.00%    100.00% |           0      0.00%    100.00% |           0      0.00%    100.00% (Unspecified)
board.cache_hierarchy.ruby_system.L1Cache_Controller.M_I.Ifetch::total            1                       (Unspecified)
board.cache_hierarchy.ruby_system.L1Cache_Controller.M_I.WB_Ack |      376884     98.80%     98.80% |         302      0.08%     98.88% |         326      0.09%     98.97% |         329      0.09%     99.05% |         269      0.07%     99.12% |         293      0.08%     99.20% |         325      0.09%     99.28% |         279      0.07%     99.36% |         289      0.08%     99.43% |         275      0.07%     99.51% |         325      0.09%     99.59% |         273      0.07%     99.66% |         286      0.07%     99.74% |         298      0.08%     99.82% |         361      0.09%     99.91% |         343      0.09%    100.00% (Unspecified)
board.cache_hierarchy.ruby_system.L1Cache_Controller.M_I.WB_Ack::total       381457                       (Unspecified)
board.cache_hierarchy.ruby_system.L1Cache_Controller.LLSC_E.Store |          15    100.00%    100.00% |           0      0.00%    100.00% |           0      0.00%    100.00% |           0      0.00%    100.00% |           0      0.00%    100.00% |           0      0.00%    100.00% |           0      0.00%    100.00% |           0      0.00%    100.00% |           0      0.00%    100.00% |           0      0.00%    100.00% |           0      0.00%    100.00% |           0      0.00%    100.00% |           0      0.00%    100.00% |           0      0.00%    100.00% |           0      0.00%    100.00% |           0      0.00%    100.00% (Unspecified)
board.cache_hierarchy.ruby_system.L1Cache_Controller.LLSC_E.Store::total           15                       (Unspecified)
board.cache_hierarchy.ruby_system.L1Cache_Controller.LLSC_M.Load |          22    100.00%    100.00% |           0      0.00%    100.00% |           0      0.00%    100.00% |           0      0.00%    100.00% |           0      0.00%    100.00% |           0      0.00%    100.00% |           0      0.00%    100.00% |           0      0.00%    100.00% |           0      0.00%    100.00% |           0      0.00%    100.00% |           0      0.00%    100.00% |           0      0.00%    100.00% |           0      0.00%    100.00% |           0      0.00%    100.00% |           0      0.00%    100.00% |           0      0.00%    100.00% (Unspecified)
board.cache_hierarchy.ruby_system.L1Cache_Controller.LLSC_M.Load::total           22                       (Unspecified)
board.cache_hierarchy.ruby_system.L1Cache_Controller.LLSC_M.Store |         123    100.00%    100.00% |           0      0.00%    100.00% |           0      0.00%    100.00% |           0      0.00%    100.00% |           0      0.00%    100.00% |           0      0.00%    100.00% |           0      0.00%    100.00% |           0      0.00%    100.00% |           0      0.00%    100.00% |           0      0.00%    100.00% |           0      0.00%    100.00% |           0      0.00%    100.00% |           0      0.00%    100.00% |           0      0.00%    100.00% |           0      0.00%    100.00% |           0      0.00%    100.00% (Unspecified)
board.cache_hierarchy.ruby_system.L1Cache_Controller.LLSC_M.Store::total          123                       (Unspecified)
board.cache_hierarchy.ruby_system.L1Cache_Controller.LLSC_M.LLSC_Timeout |         128    100.00%    100.00% |           0      0.00%    100.00% |           0      0.00%    100.00% |           0      0.00%    100.00% |           0      0.00%    100.00% |           0      0.00%    100.00% |           0      0.00%    100.00% |           0      0.00%    100.00% |           0      0.00%    100.00% |           0      0.00%    100.00% |           0      0.00%    100.00% |           0      0.00%    100.00% |           0      0.00%    100.00% |           0      0.00%    100.00% |           0      0.00%    100.00% |           0      0.00%    100.00% (Unspecified)
board.cache_hierarchy.ruby_system.L1Cache_Controller.LLSC_M.LLSC_Timeout::total          128                       (Unspecified)
board.cache_hierarchy.ruby_system.L2Cache_Controller.L1_GET_INSTR        10951      0.00%      0.00% (Unspecified)
board.cache_hierarchy.ruby_system.L2Cache_Controller.L1_GETS       256711      0.00%      0.00% (Unspecified)
board.cache_hierarchy.ruby_system.L2Cache_Controller.L1_GETX       501238      0.00%      0.00% (Unspecified)
board.cache_hierarchy.ruby_system.L2Cache_Controller.L1_UPGRADE           47      0.00%      0.00% (Unspecified)
board.cache_hierarchy.ruby_system.L2Cache_Controller.L1_PUTX       381457      0.00%      0.00% (Unspecified)
board.cache_hierarchy.ruby_system.L2Cache_Controller.L2_Replacement       375310      0.00%      0.00% (Unspecified)
board.cache_hierarchy.ruby_system.L2Cache_Controller.L2_Replacement_clean       378998      0.00%      0.00% (Unspecified)
board.cache_hierarchy.ruby_system.L2Cache_Controller.Mem_Data       758404      0.00%      0.00% (Unspecified)
board.cache_hierarchy.ruby_system.L2Cache_Controller.Mem_Ack       754308      0.00%      0.00% (Unspecified)
board.cache_hierarchy.ruby_system.L2Cache_Controller.WB_Data       126404      0.00%      0.00% (Unspecified)
board.cache_hierarchy.ruby_system.L2Cache_Controller.WB_Data_clean           21      0.00%      0.00% (Unspecified)
board.cache_hierarchy.ruby_system.L2Cache_Controller.Ack         7767      0.00%      0.00% (Unspecified)
board.cache_hierarchy.ruby_system.L2Cache_Controller.Ack_all       246636      0.00%      0.00% (Unspecified)
board.cache_hierarchy.ruby_system.L2Cache_Controller.Unblock          137      0.00%      0.00% (Unspecified)
board.cache_hierarchy.ruby_system.L2Cache_Controller.Exclusive_Unblock       756372      0.00%      0.00% (Unspecified)
board.cache_hierarchy.ruby_system.L2Cache_Controller.NP.L1_GET_INSTR         2263      0.00%      0.00% (Unspecified)
board.cache_hierarchy.ruby_system.L2Cache_Controller.NP.L1_GETS       255195      0.00%      0.00% (Unspecified)
board.cache_hierarchy.ruby_system.L2Cache_Controller.NP.L1_GETX       500946      0.00%      0.00% (Unspecified)
board.cache_hierarchy.ruby_system.L2Cache_Controller.SS.L1_GET_INSTR         3571      0.00%      0.00% (Unspecified)
board.cache_hierarchy.ruby_system.L2Cache_Controller.SS.L1_GETS          461      0.00%      0.00% (Unspecified)
board.cache_hierarchy.ruby_system.L2Cache_Controller.SS.L1_UPGRADE           47      0.00%      0.00% (Unspecified)
board.cache_hierarchy.ruby_system.L2Cache_Controller.SS.L2_Replacement           69      0.00%      0.00% (Unspecified)
board.cache_hierarchy.ruby_system.L2Cache_Controller.SS.L2_Replacement_clean         1832      0.00%      0.00% (Unspecified)
board.cache_hierarchy.ruby_system.L2Cache_Controller.M.L1_GET_INSTR            1      0.00%      0.00% (Unspecified)
board.cache_hierarchy.ruby_system.L2Cache_Controller.M.L1_GETS           35      0.00%      0.00% (Unspecified)
board.cache_hierarchy.ruby_system.L2Cache_Controller.M.L1_GETX           11      0.00%      0.00% (Unspecified)
board.cache_hierarchy.ruby_system.L2Cache_Controller.M.L2_Replacement       375200      0.00%      0.00% (Unspecified)
board.cache_hierarchy.ruby_system.L2Cache_Controller.M.L2_Replacement_clean         6184      0.00%      0.00% (Unspecified)
board.cache_hierarchy.ruby_system.L2Cache_Controller.MT.L1_GETS          137      0.00%      0.00% (Unspecified)
board.cache_hierarchy.ruby_system.L2Cache_Controller.MT.L1_GETX          142      0.00%      0.00% (Unspecified)
board.cache_hierarchy.ruby_system.L2Cache_Controller.MT.L1_PUTX       381457      0.00%      0.00% (Unspecified)
board.cache_hierarchy.ruby_system.L2Cache_Controller.MT.L2_Replacement           41      0.00%      0.00% (Unspecified)
board.cache_hierarchy.ruby_system.L2Cache_Controller.MT.L2_Replacement_clean       370982      0.00%      0.00% (Unspecified)
board.cache_hierarchy.ruby_system.L2Cache_Controller.M_I.L1_GET_INSTR          797      0.00%      0.00% (Unspecified)
board.cache_hierarchy.ruby_system.L2Cache_Controller.M_I.L1_GETS          789      0.00%      0.00% (Unspecified)
board.cache_hierarchy.ruby_system.L2Cache_Controller.M_I.L1_GETX           27      0.00%      0.00% (Unspecified)
board.cache_hierarchy.ruby_system.L2Cache_Controller.M_I.Mem_Ack       754308      0.00%      0.00% (Unspecified)
board.cache_hierarchy.ruby_system.L2Cache_Controller.MT_I.WB_Data           40      0.00%      0.00% (Unspecified)
board.cache_hierarchy.ruby_system.L2Cache_Controller.MT_I.Ack_all            1      0.00%      0.00% (Unspecified)
board.cache_hierarchy.ruby_system.L2Cache_Controller.MCT_I.WB_Data       126248      0.00%      0.00% (Unspecified)
board.cache_hierarchy.ruby_system.L2Cache_Controller.MCT_I.Ack_all       244734      0.00%      0.00% (Unspecified)
board.cache_hierarchy.ruby_system.L2Cache_Controller.I_I.L1_GET_INSTR           23      0.00%      0.00% (Unspecified)
board.cache_hierarchy.ruby_system.L2Cache_Controller.I_I.Ack         7573      0.00%      0.00% (Unspecified)
board.cache_hierarchy.ruby_system.L2Cache_Controller.I_I.Ack_all         1832      0.00%      0.00% (Unspecified)
board.cache_hierarchy.ruby_system.L2Cache_Controller.S_I.Ack          194      0.00%      0.00% (Unspecified)
board.cache_hierarchy.ruby_system.L2Cache_Controller.S_I.Ack_all           69      0.00%      0.00% (Unspecified)
board.cache_hierarchy.ruby_system.L2Cache_Controller.ISS.L1_GETS            4      0.00%      0.00% (Unspecified)
board.cache_hierarchy.ruby_system.L2Cache_Controller.ISS.Mem_Data       255191      0.00%      0.00% (Unspecified)
board.cache_hierarchy.ruby_system.L2Cache_Controller.IS.L1_GET_INSTR         4296      0.00%      0.00% (Unspecified)
board.cache_hierarchy.ruby_system.L2Cache_Controller.IS.L1_GETS           14      0.00%      0.00% (Unspecified)
board.cache_hierarchy.ruby_system.L2Cache_Controller.IS.Mem_Data         2267      0.00%      0.00% (Unspecified)
board.cache_hierarchy.ruby_system.L2Cache_Controller.IM.L1_GETX           14      0.00%      0.00% (Unspecified)
board.cache_hierarchy.ruby_system.L2Cache_Controller.IM.Mem_Data       500946      0.00%      0.00% (Unspecified)
board.cache_hierarchy.ruby_system.L2Cache_Controller.SS_MB.L1_GETS           14      0.00%      0.00% (Unspecified)
board.cache_hierarchy.ruby_system.L2Cache_Controller.SS_MB.Exclusive_Unblock           47      0.00%      0.00% (Unspecified)
board.cache_hierarchy.ruby_system.L2Cache_Controller.MT_MB.L1_GETS           13      0.00%      0.00% (Unspecified)
board.cache_hierarchy.ruby_system.L2Cache_Controller.MT_MB.L1_GETX           98      0.00%      0.00% (Unspecified)
board.cache_hierarchy.ruby_system.L2Cache_Controller.MT_MB.Exclusive_Unblock       756325      0.00%      0.00% (Unspecified)
board.cache_hierarchy.ruby_system.L2Cache_Controller.MT_IIB.L1_GETS           47      0.00%      0.00% (Unspecified)
board.cache_hierarchy.ruby_system.L2Cache_Controller.MT_IIB.WB_Data          115      0.00%      0.00% (Unspecified)
board.cache_hierarchy.ruby_system.L2Cache_Controller.MT_IIB.WB_Data_clean           20      0.00%      0.00% (Unspecified)
board.cache_hierarchy.ruby_system.L2Cache_Controller.MT_IIB.Unblock            2      0.00%      0.00% (Unspecified)
board.cache_hierarchy.ruby_system.L2Cache_Controller.MT_IB.WB_Data            1      0.00%      0.00% (Unspecified)
board.cache_hierarchy.ruby_system.L2Cache_Controller.MT_IB.WB_Data_clean            1      0.00%      0.00% (Unspecified)
board.cache_hierarchy.ruby_system.L2Cache_Controller.MT_SB.L1_GETS            2      0.00%      0.00% (Unspecified)
board.cache_hierarchy.ruby_system.L2Cache_Controller.MT_SB.Unblock          135      0.00%      0.00% (Unspecified)
board.cache_hierarchy.ruby_system.RequestType.LD.latency_hist_seqr::bucket_size          256                       (Unspecified)
board.cache_hierarchy.ruby_system.RequestType.LD.latency_hist_seqr::max_bucket         2559                       (Unspecified)
board.cache_hierarchy.ruby_system.RequestType.LD.latency_hist_seqr::samples     24500794                       (Unspecified)
board.cache_hierarchy.ruby_system.RequestType.LD.latency_hist_seqr::mean     4.991121                       (Unspecified)
board.cache_hierarchy.ruby_system.RequestType.LD.latency_hist_seqr::gmean     1.063126                       (Unspecified)
board.cache_hierarchy.ruby_system.RequestType.LD.latency_hist_seqr::stdev    42.893208                       (Unspecified)
board.cache_hierarchy.ruby_system.RequestType.LD.latency_hist_seqr |    24290716     99.14%     99.14% |      163576      0.67%     99.81% |       39980      0.16%     99.97% |        2113      0.01%     99.98% |        2764      0.01%     99.99% |        1481      0.01%    100.00% |         160      0.00%    100.00% |           4      0.00%    100.00% |           0      0.00%    100.00% |           0      0.00%    100.00% (Unspecified)
board.cache_hierarchy.ruby_system.RequestType.LD.latency_hist_seqr::total     24500794                       (Unspecified)
board.cache_hierarchy.ruby_system.RequestType.LD.hit_latency_hist_seqr::bucket_size            1                       (Unspecified)
board.cache_hierarchy.ruby_system.RequestType.LD.hit_latency_hist_seqr::max_bucket            9                       (Unspecified)
board.cache_hierarchy.ruby_system.RequestType.LD.hit_latency_hist_seqr::samples     24244948                       (Unspecified)
board.cache_hierarchy.ruby_system.RequestType.LD.hit_latency_hist_seqr::mean            1                       (Unspecified)
board.cache_hierarchy.ruby_system.RequestType.LD.hit_latency_hist_seqr::gmean            1                       (Unspecified)
board.cache_hierarchy.ruby_system.RequestType.LD.hit_latency_hist_seqr |           0      0.00%      0.00% |    24244948    100.00%    100.00% |           0      0.00%    100.00% |           0      0.00%    100.00% |           0      0.00%    100.00% |           0      0.00%    100.00% |           0      0.00%    100.00% |           0      0.00%    100.00% |           0      0.00%    100.00% |           0      0.00%    100.00% (Unspecified)
board.cache_hierarchy.ruby_system.RequestType.LD.hit_latency_hist_seqr::total     24244948                       (Unspecified)
board.cache_hierarchy.ruby_system.RequestType.LD.miss_latency_hist_seqr::bucket_size          256                       (Unspecified)
board.cache_hierarchy.ruby_system.RequestType.LD.miss_latency_hist_seqr::max_bucket         2559                       (Unspecified)
board.cache_hierarchy.ruby_system.RequestType.LD.miss_latency_hist_seqr::samples       255846                       (Unspecified)
board.cache_hierarchy.ruby_system.RequestType.LD.miss_latency_hist_seqr::mean   383.205010                       (Unspecified)
board.cache_hierarchy.ruby_system.RequestType.LD.miss_latency_hist_seqr::gmean   351.435339                       (Unspecified)
board.cache_hierarchy.ruby_system.RequestType.LD.miss_latency_hist_seqr::stdev   177.858900                       (Unspecified)
board.cache_hierarchy.ruby_system.RequestType.LD.miss_latency_hist_seqr |       45768     17.89%     17.89% |      163576     63.94%     81.82% |       39980     15.63%     97.45% |        2113      0.83%     98.28% |        2764      1.08%     99.36% |        1481      0.58%     99.94% |         160      0.06%    100.00% |           4      0.00%    100.00% |           0      0.00%    100.00% |           0      0.00%    100.00% (Unspecified)
board.cache_hierarchy.ruby_system.RequestType.LD.miss_latency_hist_seqr::total       255846                       (Unspecified)
board.cache_hierarchy.ruby_system.RequestType.ST.latency_hist_seqr::bucket_size          256                       (Unspecified)
board.cache_hierarchy.ruby_system.RequestType.ST.latency_hist_seqr::max_bucket         2559                       (Unspecified)
board.cache_hierarchy.ruby_system.RequestType.ST.latency_hist_seqr::samples      7700170                       (Unspecified)
board.cache_hierarchy.ruby_system.RequestType.ST.latency_hist_seqr::mean    16.011671                       (Unspecified)
board.cache_hierarchy.ruby_system.RequestType.ST.latency_hist_seqr::gmean     1.459879                       (Unspecified)
board.cache_hierarchy.ruby_system.RequestType.ST.latency_hist_seqr::stdev    70.182935                       (Unspecified)
board.cache_hierarchy.ruby_system.RequestType.ST.latency_hist_seqr |     7572855     98.35%     98.35% |       82846      1.08%     99.42% |       37354      0.49%     99.91% |        4983      0.06%     99.97% |        1325      0.02%     99.99% |         639      0.01%    100.00% |         165      0.00%    100.00% |           3      0.00%    100.00% |           0      0.00%    100.00% |           0      0.00%    100.00% (Unspecified)
board.cache_hierarchy.ruby_system.RequestType.ST.latency_hist_seqr::total      7700170                       (Unspecified)
board.cache_hierarchy.ruby_system.RequestType.ST.hit_latency_hist_seqr::bucket_size            1                       (Unspecified)
board.cache_hierarchy.ruby_system.RequestType.ST.hit_latency_hist_seqr::max_bucket            9                       (Unspecified)
board.cache_hierarchy.ruby_system.RequestType.ST.hit_latency_hist_seqr::samples      7199030                       (Unspecified)
board.cache_hierarchy.ruby_system.RequestType.ST.hit_latency_hist_seqr::mean     1.052091                       (Unspecified)
board.cache_hierarchy.ruby_system.RequestType.ST.hit_latency_hist_seqr::gmean     1.036767                       (Unspecified)
board.cache_hierarchy.ruby_system.RequestType.ST.hit_latency_hist_seqr::stdev     0.222211                       (Unspecified)
board.cache_hierarchy.ruby_system.RequestType.ST.hit_latency_hist_seqr |           0      0.00%      0.00% |     6824022     94.79%     94.79% |      375008      5.21%    100.00% |           0      0.00%    100.00% |           0      0.00%    100.00% |           0      0.00%    100.00% |           0      0.00%    100.00% |           0      0.00%    100.00% |           0      0.00%    100.00% |           0      0.00%    100.00% (Unspecified)
board.cache_hierarchy.ruby_system.RequestType.ST.hit_latency_hist_seqr::total      7199030                       (Unspecified)
board.cache_hierarchy.ruby_system.RequestType.ST.miss_latency_hist_seqr::bucket_size          256                       (Unspecified)
board.cache_hierarchy.ruby_system.RequestType.ST.miss_latency_hist_seqr::max_bucket         2559                       (Unspecified)
board.cache_hierarchy.ruby_system.RequestType.ST.miss_latency_hist_seqr::samples       501140                       (Unspecified)
board.cache_hierarchy.ruby_system.RequestType.ST.miss_latency_hist_seqr::mean   230.910618                       (Unspecified)
board.cache_hierarchy.ruby_system.RequestType.ST.miss_latency_hist_seqr::gmean   199.304537                       (Unspecified)
board.cache_hierarchy.ruby_system.RequestType.ST.miss_latency_hist_seqr::stdev   162.132713                       (Unspecified)
board.cache_hierarchy.ruby_system.RequestType.ST.miss_latency_hist_seqr |      373825     74.59%     74.59% |       82846     16.53%     91.13% |       37354      7.45%     98.58% |        4983      0.99%     99.57% |        1325      0.26%     99.84% |         639      0.13%     99.97% |         165      0.03%    100.00% |           3      0.00%    100.00% |           0      0.00%    100.00% |           0      0.00%    100.00% (Unspecified)
board.cache_hierarchy.ruby_system.RequestType.ST.miss_latency_hist_seqr::total       501140                       (Unspecified)
board.cache_hierarchy.ruby_system.RequestType.IFETCH.latency_hist_seqr::bucket_size          256                       (Unspecified)
board.cache_hierarchy.ruby_system.RequestType.IFETCH.latency_hist_seqr::max_bucket         2559                       (Unspecified)
board.cache_hierarchy.ruby_system.RequestType.IFETCH.latency_hist_seqr::samples     17040070                       (Unspecified)
board.cache_hierarchy.ruby_system.RequestType.IFETCH.latency_hist_seqr::mean     1.099211                       (Unspecified)
board.cache_hierarchy.ruby_system.RequestType.IFETCH.latency_hist_seqr::gmean     1.002595                       (Unspecified)
board.cache_hierarchy.ruby_system.RequestType.IFETCH.latency_hist_seqr::stdev     6.006735                       (Unspecified)
board.cache_hierarchy.ruby_system.RequestType.IFETCH.latency_hist_seqr |    17037692     99.99%     99.99% |        1881      0.01%    100.00% |         390      0.00%    100.00% |          66      0.00%    100.00% |          18      0.00%    100.00% |          23      0.00%    100.00% |           0      0.00%    100.00% |           0      0.00%    100.00% |           0      0.00%    100.00% |           0      0.00%    100.00% (Unspecified)
board.cache_hierarchy.ruby_system.RequestType.IFETCH.latency_hist_seqr::total     17040070                       (Unspecified)
board.cache_hierarchy.ruby_system.RequestType.IFETCH.hit_latency_hist_seqr::bucket_size            1                       (Unspecified)
board.cache_hierarchy.ruby_system.RequestType.IFETCH.hit_latency_hist_seqr::max_bucket            9                       (Unspecified)
board.cache_hierarchy.ruby_system.RequestType.IFETCH.hit_latency_hist_seqr::samples     17029939                       (Unspecified)
board.cache_hierarchy.ruby_system.RequestType.IFETCH.hit_latency_hist_seqr::mean            1                       (Unspecified)
board.cache_hierarchy.ruby_system.RequestType.IFETCH.hit_latency_hist_seqr::gmean            1                       (Unspecified)
board.cache_hierarchy.ruby_system.RequestType.IFETCH.hit_latency_hist_seqr |           0      0.00%      0.00% |    17029939    100.00%    100.00% |           0      0.00%    100.00% |           0      0.00%    100.00% |           0      0.00%    100.00% |           0      0.00%    100.00% |           0      0.00%    100.00% |           0      0.00%    100.00% |           0      0.00%    100.00% |           0      0.00%    100.00% (Unspecified)
board.cache_hierarchy.ruby_system.RequestType.IFETCH.hit_latency_hist_seqr::total     17029939                       (Unspecified)
board.cache_hierarchy.ruby_system.RequestType.IFETCH.miss_latency_hist_seqr::bucket_size          256                       (Unspecified)
board.cache_hierarchy.ruby_system.RequestType.IFETCH.miss_latency_hist_seqr::max_bucket         2559                       (Unspecified)
board.cache_hierarchy.ruby_system.RequestType.IFETCH.miss_latency_hist_seqr::samples        10131                       (Unspecified)
board.cache_hierarchy.ruby_system.RequestType.IFETCH.miss_latency_hist_seqr::mean   167.869707                       (Unspecified)
board.cache_hierarchy.ruby_system.RequestType.IFETCH.miss_latency_hist_seqr::gmean    78.206219                       (Unspecified)
board.cache_hierarchy.ruby_system.RequestType.IFETCH.miss_latency_hist_seqr::stdev   181.276955                       (Unspecified)
board.cache_hierarchy.ruby_system.RequestType.IFETCH.miss_latency_hist_seqr |        7753     76.53%     76.53% |        1881     18.57%     95.09% |         390      3.85%     98.94% |          66      0.65%     99.60% |          18      0.18%     99.77% |          23      0.23%    100.00% |           0      0.00%    100.00% |           0      0.00%    100.00% |           0      0.00%    100.00% |           0      0.00%    100.00% (Unspecified)
board.cache_hierarchy.ruby_system.RequestType.IFETCH.miss_latency_hist_seqr::total        10131                       (Unspecified)
board.cache_hierarchy.ruby_system.RequestType.Load_Linked.latency_hist_seqr::bucket_size           64                       (Unspecified)
board.cache_hierarchy.ruby_system.RequestType.Load_Linked.latency_hist_seqr::max_bucket          639                       (Unspecified)
board.cache_hierarchy.ruby_system.RequestType.Load_Linked.latency_hist_seqr::samples          128                       (Unspecified)
board.cache_hierarchy.ruby_system.RequestType.Load_Linked.latency_hist_seqr::mean    10.796875                       (Unspecified)
board.cache_hierarchy.ruby_system.RequestType.Load_Linked.latency_hist_seqr::gmean     1.278891                       (Unspecified)
board.cache_hierarchy.ruby_system.RequestType.Load_Linked.latency_hist_seqr::stdev    50.478554                       (Unspecified)
board.cache_hierarchy.ruby_system.RequestType.Load_Linked.latency_hist_seqr |         122     95.31%     95.31% |           0      0.00%     95.31% |           4      3.12%     98.44% |           1      0.78%     99.22% |           0      0.00%     99.22% |           0      0.00%     99.22% |           0      0.00%     99.22% |           1      0.78%    100.00% |           0      0.00%    100.00% |           0      0.00%    100.00% (Unspecified)
board.cache_hierarchy.ruby_system.RequestType.Load_Linked.latency_hist_seqr::total          128                       (Unspecified)
board.cache_hierarchy.ruby_system.RequestType.Load_Linked.hit_latency_hist_seqr::bucket_size            1                       (Unspecified)
board.cache_hierarchy.ruby_system.RequestType.Load_Linked.hit_latency_hist_seqr::max_bucket            9                       (Unspecified)
board.cache_hierarchy.ruby_system.RequestType.Load_Linked.hit_latency_hist_seqr::samples          122                       (Unspecified)
board.cache_hierarchy.ruby_system.RequestType.Load_Linked.hit_latency_hist_seqr::mean            1                       (Unspecified)
board.cache_hierarchy.ruby_system.RequestType.Load_Linked.hit_latency_hist_seqr::gmean            1                       (Unspecified)
board.cache_hierarchy.ruby_system.RequestType.Load_Linked.hit_latency_hist_seqr |           0      0.00%      0.00% |         122    100.00%    100.00% |           0      0.00%    100.00% |           0      0.00%    100.00% |           0      0.00%    100.00% |           0      0.00%    100.00% |           0      0.00%    100.00% |           0      0.00%    100.00% |           0      0.00%    100.00% |           0      0.00%    100.00% (Unspecified)
board.cache_hierarchy.ruby_system.RequestType.Load_Linked.hit_latency_hist_seqr::total          122                       (Unspecified)
board.cache_hierarchy.ruby_system.RequestType.Load_Linked.miss_latency_hist_seqr::bucket_size           64                       (Unspecified)
board.cache_hierarchy.ruby_system.RequestType.Load_Linked.miss_latency_hist_seqr::max_bucket          639                       (Unspecified)
board.cache_hierarchy.ruby_system.RequestType.Load_Linked.miss_latency_hist_seqr::samples            6                       (Unspecified)
board.cache_hierarchy.ruby_system.RequestType.Load_Linked.miss_latency_hist_seqr::mean          210                       (Unspecified)
board.cache_hierarchy.ruby_system.RequestType.Load_Linked.miss_latency_hist_seqr::gmean   190.159065                       (Unspecified)
board.cache_hierarchy.ruby_system.RequestType.Load_Linked.miss_latency_hist_seqr::stdev   121.495679                       (Unspecified)
board.cache_hierarchy.ruby_system.RequestType.Load_Linked.miss_latency_hist_seqr |           0      0.00%      0.00% |           0      0.00%      0.00% |           4     66.67%     66.67% |           1     16.67%     83.33% |           0      0.00%     83.33% |           0      0.00%     83.33% |           0      0.00%     83.33% |           1     16.67%    100.00% |           0      0.00%    100.00% |           0      0.00%    100.00% (Unspecified)
board.cache_hierarchy.ruby_system.RequestType.Load_Linked.miss_latency_hist_seqr::total            6                       (Unspecified)
board.cache_hierarchy.ruby_system.RequestType.Store_Conditional.latency_hist_seqr::bucket_size            1                       (Unspecified)
board.cache_hierarchy.ruby_system.RequestType.Store_Conditional.latency_hist_seqr::max_bucket            9                       (Unspecified)
[...]
board.processor.cores9.core.commitStats0.committedInstType::SimdDotProd            0      0.00%     45.11% # Class of committed instruction. (Count)
board.processor.cores9.core.commitStats0.committedInstType::Matrix            0      0.00%     45.11% # Class of committed instruction. (Count)
board.processor.cores9.core.commitStats0.committedInstType::MatrixMov            0      0.00%     45.11% # Class of committed instruction. (Count)
board.processor.cores9.core.commitStats0.committedInstType::MatrixOP            0      0.00%     45.11% # Class of committed instruction. (Count)
board.processor.cores9.core.commitStats0.committedInstType::MemRead       539362     34.29%     79.40% # Class of committed instruction. (Count)
board.processor.cores9.core.commitStats0.committedInstType::MemWrite        73918      4.70%     84.10% # Class of committed instruction. (Count)
board.processor.cores9.core.commitStats0.committedInstType::FloatMemRead       187501     11.92%     96.03% # Class of committed instruction. (Count)
board.processor.cores9.core.commitStats0.committedInstType::FloatMemWrite        62513      3.97%    100.00% # Class of committed instruction. (Count)
board.processor.cores9.core.commitStats0.committedInstType::InstPrefetch            0      0.00%    100.00% # Class of committed instruction. (Count)
board.processor.cores9.core.commitStats0.committedInstType::SimdUnitStrideLoad            0      0.00%    100.00% # Class of committed instruction. (Count)
board.processor.cores9.core.commitStats0.committedInstType::SimdUnitStrideStore            0      0.00%    100.00% # Class of committed instruction. (Count)
board.processor.cores9.core.commitStats0.committedInstType::SimdUnitStrideMaskLoad            0      0.00%    100.00% # Class of committed instruction. (Count)
board.processor.cores9.core.commitStats0.committedInstType::SimdUnitStrideMaskStore            0      0.00%    100.00% # Class of committed instruction. (Count)
board.processor.cores9.core.commitStats0.committedInstType::SimdStridedLoad            0      0.00%    100.00% # Class of committed instruction. (Count)
board.processor.cores9.core.commitStats0.committedInstType::SimdStridedStore            0      0.00%    100.00% # Class of committed instruction. (Count)
board.processor.cores9.core.commitStats0.committedInstType::SimdIndexedLoad            0      0.00%    100.00% # Class of committed instruction. (Count)
board.processor.cores9.core.commitStats0.committedInstType::SimdIndexedStore            0      0.00%    100.00% # Class of committed instruction. (Count)
board.processor.cores9.core.commitStats0.committedInstType::SimdWholeRegisterLoad            0      0.00%    100.00% # Class of committed instruction. (Count)
board.processor.cores9.core.commitStats0.committedInstType::SimdWholeRegisterStore            0      0.00%    100.00% # Class of committed instruction. (Count)
board.processor.cores9.core.commitStats0.committedInstType::SimdUnitStrideFaultOnlyFirstLoad            0      0.00%    100.00% # Class of committed instruction. (Count)
board.processor.cores9.core.commitStats0.committedInstType::SimdUnitStrideSegmentedLoad            0      0.00%    100.00% # Class of committed instruction. (Count)
board.processor.cores9.core.commitStats0.committedInstType::SimdUnitStrideSegmentedStore            0      0.00%    100.00% # Class of committed instruction. (Count)
board.processor.cores9.core.commitStats0.committedInstType::SimdUnitStrideSegmentedFaultOnlyFirstLoad            0      0.00%    100.00% # Class of committed instruction. (Count)
board.processor.cores9.core.commitStats0.committedInstType::SimdStrideSegmentedLoad            0      0.00%    100.00% # Class of committed instruction. (Count)
board.processor.cores9.core.commitStats0.committedInstType::SimdStrideSegmentedStore            0      0.00%    100.00% # Class of committed instruction. (Count)
board.processor.cores9.core.commitStats0.committedInstType::SimdExt            0      0.00%    100.00% # Class of committed instruction. (Count)
board.processor.cores9.core.commitStats0.committedInstType::SimdFloatExt            0      0.00%    100.00% # Class of committed instruction. (Count)
board.processor.cores9.core.commitStats0.committedInstType::SimdConfig            0      0.00%    100.00% # Class of committed instruction. (Count)
board.processor.cores9.core.commitStats0.committedInstType::SimdBf16Add            0      0.00%    100.00% # Class of committed instruction. (Count)
board.processor.cores9.core.commitStats0.committedInstType::SimdBf16Cmp            0      0.00%    100.00% # Class of committed instruction. (Count)
board.processor.cores9.core.commitStats0.committedInstType::SimdBf16Cvt            0      0.00%    100.00% # Class of committed instruction. (Count)
board.processor.cores9.core.commitStats0.committedInstType::SimdBf16DotProd            0      0.00%    100.00% # Class of committed instruction. (Count)
board.processor.cores9.core.commitStats0.committedInstType::SimdBf16MatMultAcc            0      0.00%    100.00% # Class of committed instruction. (Count)
board.processor.cores9.core.commitStats0.committedInstType::SimdBf16Mult            0      0.00%    100.00% # Class of committed instruction. (Count)
board.processor.cores9.core.commitStats0.committedInstType::SimdBf16MultAcc            0      0.00%    100.00% # Class of committed instruction. (Count)
board.processor.cores9.core.commitStats0.committedInstType::Bf16Cvt            0      0.00%    100.00% # Class of committed instruction. (Count)
board.processor.cores9.core.commitStats0.committedInstType::System            0      0.00%    100.00% # Class of committed instruction. (Count)
board.processor.cores9.core.commitStats0.committedInstType::total      1572771                       # Class of committed instruction. (Count)
board.processor.cores9.core.commitStats0.committedControl::IsControl        85007                       # Class of control type instructions committed (Count)
board.processor.cores9.core.commitStats0.committedControl::IsDirectControl        79394                       # Class of control type instructions committed (Count)
board.processor.cores9.core.commitStats0.committedControl::IsIndirectControl         5613                       # Class of control type instructions committed (Count)
board.processor.cores9.core.commitStats0.committedControl::IsCondControl        73764                       # Class of control type instructions committed (Count)
board.processor.cores9.core.commitStats0.committedControl::IsUncondControl        11243                       # Class of control type instructions committed (Count)
board.processor.cores9.core.commitStats0.committedControl::IsCall         5615                       # Class of control type instructions committed (Count)
board.processor.cores9.core.commitStats0.committedControl::IsReturn         5608                       # Class of control type instructions committed (Count)
board.processor.cores9.core.commitStats0.functionCalls         5615                       # Number of function calls committed (Count)
board.processor.cores9.core.commitStats0.numCallsReturns        11223                       # Number of function calls and returns committed (Count)
board.processor.cores9.core.executeStats0.numInsts      1572764                       # Number of executed instructions (Count)
board.processor.cores9.core.executeStats0.numNop            0                       # Number of nop insts executed (Count)
board.processor.cores9.core.executeStats0.numBranches        85007                       # Number of branches executed (Count)
board.processor.cores9.core.executeStats0.numLoadInsts       726859                       # Number of load instructions executed (Count)
board.processor.cores9.core.executeStats0.numStoreInsts       136435                       # Number of stores executed (Count)
board.processor.cores9.core.executeStats0.instRate     0.146443                       # Inst execution rate ((Count/Cycle))
board.processor.cores9.core.executeStats0.numFpAluAccesses       375014                       # Number of float alu accesses (Count)
board.processor.cores9.core.executeStats0.numFpRegReads       312513                       # Number of times the floating registers were read (Count)
board.processor.cores9.core.executeStats0.numFpRegWrites       312501                       # Number of times the floating registers were written (Count)
board.processor.cores9.core.executeStats0.numIntAluAccesses      1448057                       # Number of integer alu accesses (Count)
board.processor.cores9.core.executeStats0.numIntRegReads      1771782                       # Number of times the integer registers were read (Count)
board.processor.cores9.core.executeStats0.numIntRegWrites      1038853                       # Number of times the integer registers were written (Count)
board.processor.cores9.core.executeStats0.numMemRefs       863294                       # Number of memory refs (Count)
board.processor.cores9.core.executeStats0.numVecAluAccesses            0                       # Number of vector alu accesses (Count)
board.processor.cores9.core.executeStats0.numDiscardedOps          318                       # Number of ops (including micro ops) which were discarded before commit (Count)
board.processor.cores9.core.fetch2.totalInstructions      1574185                       # Total number of instructions successfully decoded (Count)
board.processor.cores9.core.fetch2.intInstructions       585263                       # Number of integer instructions successfully decoded (Count)
board.processor.cores9.core.fetch2.fpInstructions       125002                       # Number of floating point instructions successfully decoded (Count)
board.processor.cores9.core.fetch2.vecInstructions            0                       # Number of SIMD instructions successfully decoded (Count)
board.processor.cores9.core.fetch2.loadInstructions       727303                       # Number of memory load instructions successfully decoded (Count)
board.processor.cores9.core.fetch2.storeInstructions       136557                       # Number of memory store instructions successfully decoded (Count)
board.processor.cores9.core.fetch2.amoInstructions            0                       # Number of memory atomic instructions successfully decoded (Count)
board.processor.cores9.core.fetchStats0.numInsts      1574185                       # Number of instructions fetched (thread level) (Count)
board.processor.cores9.core.fetchStats0.numOps            0                       # Number of ops (including micro ops) fetched (thread level) (Count)
board.processor.cores9.core.fetchStats0.fetchRate     0.146575                       # Number of inst fetches per cycle ((Count/Cycle))
board.processor.cores9.core.fetchStats0.numBranches        85274                       # Number of branches fetched (Count)
board.processor.cores9.core.fetchStats0.branchRate     0.007940                       # Number of branch fetches per cycle (Ratio)
board.processor.cores9.core.fetchStats0.numFetchSuspends            0                       # Number of times Execute suspended instruction fetching (Count)
board.processor.cores9.core.mmu.dtb.readHits            0                       # read hits (Count)
board.processor.cores9.core.mmu.dtb.readMisses            0                       # read misses (Count)
board.processor.cores9.core.mmu.dtb.readAccesses            0                       # read accesses (Count)
board.processor.cores9.core.mmu.dtb.writeHits            0                       # write hits (Count)
board.processor.cores9.core.mmu.dtb.writeMisses            0                       # write misses (Count)
board.processor.cores9.core.mmu.dtb.writeAccesses            0                       # write accesses (Count)
board.processor.cores9.core.mmu.dtb.hits            0                       # Total TLB (read and write) hits (Count)
board.processor.cores9.core.mmu.dtb.misses            0                       # Total TLB (read and write) misses (Count)
board.processor.cores9.core.mmu.dtb.accesses            0                       # Total TLB (read and write) accesses (Count)
board.processor.cores9.core.mmu.dtb.walker.num_4kb_walks            0                       # Completed page walks with 4KB pages (Count)
board.processor.cores9.core.mmu.dtb.walker.num_64kb_walks            0                       # Completed page walks with 64KB pages (Count)
board.processor.cores9.core.mmu.dtb.walker.num_2mb_walks            0                       # Completed page walks with 2MB pages (Count)
board.processor.cores9.core.mmu.dtb.walker.power_state.pwrStateResidencyTicks::UNDEFINED  38492848953                       # Cumulative time (in ticks) in various power states (Tick)
board.processor.cores9.core.mmu.itb.readHits            0                       # read hits (Count)
board.processor.cores9.core.mmu.itb.readMisses            0                       # read misses (Count)
board.processor.cores9.core.mmu.itb.readAccesses            0                       # read accesses (Count)
board.processor.cores9.core.mmu.itb.writeHits            0                       # write hits (Count)
board.processor.cores9.core.mmu.itb.writeMisses            0                       # write misses (Count)
board.processor.cores9.core.mmu.itb.writeAccesses            0                       # write accesses (Count)
board.processor.cores9.core.mmu.itb.hits            0                       # Total TLB (read and write) hits (Count)
board.processor.cores9.core.mmu.itb.misses            0                       # Total TLB (read and write) misses (Count)
board.processor.cores9.core.mmu.itb.accesses            0                       # Total TLB (read and write) accesses (Count)
board.processor.cores9.core.mmu.itb.walker.num_4kb_walks            0                       # Completed page walks with 4KB pages (Count)
board.processor.cores9.core.mmu.itb.walker.num_64kb_walks            0                       # Completed page walks with 64KB pages (Count)
board.processor.cores9.core.mmu.itb.walker.num_2mb_walks            0                       # Completed page walks with 2MB pages (Count)
board.processor.cores9.core.mmu.itb.walker.power_state.pwrStateResidencyTicks::UNDEFINED  38492848953                       # Cumulative time (in ticks) in various power states (Tick)
board.processor.cores9.core.power_state.pwrStateResidencyTicks::ON  38492848953                       # Cumulative time (in ticks) in various power states (Tick)
board.processor.cores9.core.thread_0.numInsts      1572764                       # Number of Instructions committed (Count)
board.processor.cores9.core.thread_0.numOps      1572771                       # Number of Ops committed (Count)
board.processor.cores9.core.thread_0.numMemRefs       863294                       # Number of Memory References (Count)
board.workload.inst.arm                             0                       # number of arm instructions executed (Count)
board.workload.inst.quiesce                         0                       # number of quiesce instructions executed (Count)
board.processor.cores00.core.idleCycles      71914604                       # Total number of cycles that the object has spent stopped (Unspecified)
board.processor.cores00.core.tickCycles      43679537                       # Number of cycles that the object actually ticked (Unspecified)
board.processor.cores01.core.idleCycles       8663897                       # Total number of cycles that the object has spent stopped (Unspecified)
board.processor.cores01.core.tickCycles       2124269                       # Number of cycles that the object actually ticked (Unspecified)
board.processor.cores02.core.idleCycles       8632648                       # Total number of cycles that the object has spent stopped (Unspecified)
board.processor.cores02.core.tickCycles       2147572                       # Number of cycles that the object actually ticked (Unspecified)
board.processor.cores03.core.idleCycles       8648625                       # Total number of cycles that the object has spent stopped (Unspecified)
board.processor.cores03.core.tickCycles       2124936                       # Number of cycles that the object actually ticked (Unspecified)
board.processor.cores04.core.idleCycles       8690860                       # Total number of cycles that the object has spent stopped (Unspecified)
board.processor.cores04.core.tickCycles       2076304                       # Number of cycles that the object actually ticked (Unspecified)
board.processor.cores05.core.idleCycles       8715775                       # Total number of cycles that the object has spent stopped (Unspecified)
board.processor.cores05.core.tickCycles       2045944                       # Number of cycles that the object actually ticked (Unspecified)
board.processor.cores06.core.idleCycles       8717555                       # Total number of cycles that the object has spent stopped (Unspecified)
board.processor.cores06.core.tickCycles       2038672                       # Number of cycles that the object actually ticked (Unspecified)
board.processor.cores07.core.idleCycles       8676583                       # Total number of cycles that the object has spent stopped (Unspecified)
board.processor.cores07.core.tickCycles       2074619                       # Number of cycles that the object actually ticked (Unspecified)
board.processor.cores08.core.idleCycles       8688391                       # Total number of cycles that the object has spent stopped (Unspecified)
board.processor.cores08.core.tickCycles       2056371                       # Number of cycles that the object actually ticked (Unspecified)
board.processor.cores09.core.idleCycles       8695958                       # Total number of cycles that the object has spent stopped (Unspecified)
board.processor.cores09.core.tickCycles       2043828                       # Number of cycles that the object actually ticked (Unspecified)
board.processor.cores10.core.idleCycles       8709122                       # Total number of cycles that the object has spent stopped (Unspecified)
board.processor.cores10.core.tickCycles       2025373                       # Number of cycles that the object actually ticked (Unspecified)
board.processor.cores11.core.idleCycles       8735118                       # Total number of cycles that the object has spent stopped (Unspecified)
board.processor.cores11.core.tickCycles       1993780                       # Number of cycles that the object actually ticked (Unspecified)
board.processor.cores12.core.idleCycles       8716193                       # Total number of cycles that the object has spent stopped (Unspecified)
board.processor.cores12.core.tickCycles       2006393                       # Number of cycles that the object actually ticked (Unspecified)
board.processor.cores13.core.idleCycles       8692477                       # Total number of cycles that the object has spent stopped (Unspecified)
board.processor.cores13.core.tickCycles       2024467                       # Number of cycles that the object actually ticked (Unspecified)
board.processor.cores14.core.idleCycles       8718116                       # Total number of cycles that the object has spent stopped (Unspecified)
board.processor.cores14.core.tickCycles       1993932                       # Number of cycles that the object actually ticked (Unspecified)
board.processor.cores15.core.idleCycles       8727249                       # Total number of cycles that the object has spent stopped (Unspecified)
board.processor.cores15.core.tickCycles       1979971                       # Number of cycles that the object actually ticked (Unspecified)

---------- End Simulation Statistics   ----------
